
*** ChampSim Multicore Out-of-Order Simulator ***

Warmup Instructions: 100
Simulation Instructions: 100
Number of CPUs: 1
Off-chip DRAM Size: 4 GiB Channels: 1 Width: 64-bit Data Rate: 3200 MT/s

VirtualMemory physical capacity: 8588881920 num_ppages: 2096895
VirtualMemory page size: 4096 log2_page_size: 12

CPU 0 runs ../../Tracefiles/602.gcc_s-1850B.champsimtrace.xz
CPU 0 Bimodal branch predictor
Basic BTB sets: 1024 ways: 8 indirect buffer size: 4096 RAS size: 64
ip 4257008       type 4        full_addr 3750084608 
ip 4257008       type 4        full_addr 3750084608 
ip 4257008       type 4        full_addr 3750084608 
ip 4257008       type 4        full_addr 3750088704 
ip 4257008       type 4        full_addr 3750088704 
ip 4257008       type 4        full_addr 3750088704 
ip 4257008       type 4        full_addr 3750092800 
ip 4257008       type 4        full_addr 3750092800 
ip 4257008       type 4        full_addr 3750092800 
ip 4257008       type 4        full_addr 3750096896 
ip 4257008       type 4        full_addr 3750096896 
ip 4257008       type 4        full_addr 3750096896 
ip 4257008       type 4        full_addr 3750101008 
ip 4257008       type 4        full_addr 3750101008 
ip 4257008       type 4        full_addr 3750101008 
ip 4257008       type 0        full_addr 4257008 
ip 4257008       type 0        full_addr 4257008 
ip 4257008       type 0        full_addr 3083470064 
ip 4257008       type 0        full_addr 3083470064 
ip 4257008       type 0        full_addr 3083470064 
ip 4257017       type 0        full_addr 4257008 
ip 4257025       type 0        full_addr 3083470081 
ip 4257025       type 0        full_addr 3083470081 
ip 4257025       type 0        full_addr 3083470081 
ip 4257090       type 0        full_addr 3083470146 
ip 4257090       type 0        full_addr 3083470146 
ip 4257090       type 0        full_addr 3083470146 
ip 4257519       type 0        full_addr 3083470575 
ip 4257519       type 0        full_addr 3083470575 
ip 4257519       type 0        full_addr 3083470575 
ip 4257536       type 0        full_addr 3083470592 
ip 4257536       type 0        full_addr 3083470592 
ip 4257536       type 0        full_addr 3083470592 
ip 4257008       type 4        full_addr 3750094840 
ip 4257008       type 4        full_addr 3750094840 
ip 4257008       type 4        full_addr 3750094840 
ip 4257634       type 0        full_addr 3083470690 
ip 4257634       type 0        full_addr 3083470690 
ip 4257634       type 0        full_addr 3083470690 
ip 4257771       type 0        full_addr 3083470827 
ip 4257771       type 0        full_addr 3083470827 
ip 4257771       type 0        full_addr 3083470827 
ip 4257926       type 0        full_addr 3083470982 
ip 4257926       type 0        full_addr 3083470982 
ip 4257926       type 0        full_addr 3083470982 
ip 4257076       type 4        full_addr 3750101008 
ip 4257930       type 0        full_addr 4257008 
ip 4257008       type 4        full_addr 3750109136 
ip 4257008       type 4        full_addr 3750109136 
ip 4257008       type 4        full_addr 3750109136 
ip 4257937       type 0        full_addr 3083470982 
ip 4257728       type 0        full_addr 3083470827 
ip 4257008       type 0        full_addr 3083470064 
ip 4257076       type 4        full_addr 3750109960 
ip 4257076       type 4        full_addr 3750109960 
ip 4257076       type 4        full_addr 3750109960 
ip 4257076       type 0        full_addr 1278999192 
ip 4257025       type 0        full_addr 3083470081 
ip 4257076       type 0        full_addr 1278999192 
ip 4257080       type 4        full_addr 3750114120 
ip 4257080       type 4        full_addr 3750114120 
ip 4257080       type 4        full_addr 3750114120 
ip 4257080       type 0        full_addr 7736871344 
ip 4257080       type 0        full_addr 7736871344 
ip 4257712       type 0        full_addr 3083470768 
ip 4257712       type 0        full_addr 3083470768 
ip 4257712       type 0        full_addr 3083470768 
ip 4257090       type 0        full_addr 3083470146 
ip 4257008       type 4        full_addr 3750121248 
ip 4257008       type 4        full_addr 3750121248 
ip 4257008       type 4        full_addr 3750121248 
ip 4257008       type 1        full_addr 140732062284592 
ip 4257008       type 1        full_addr 140732062284592 
ip 4257519       type 0        full_addr 3083470575 
ip 4257536       type 0        full_addr 3083470592 
ip 4257076       type 0        full_addr 7312784024 
ip 4257076       type 0        full_addr 7312784024 
ip 4257076       type 0        full_addr 7312784024 
ip 4257712       type 0        full_addr 1278999192 
ip 4257721       type 0        full_addr 7736871344 
ip 4257930       type 0        full_addr 7312783968 
ip 4257930       type 0        full_addr 7312783968 
ip 4257930       type 0        full_addr 7312783968 
ip 4257712       type 0        full_addr 7312784024 
ip 4257766       type 1        full_addr 140732062284592 
ip 4257080       type 0        full_addr 6810589616 
ip 4257080       type 0        full_addr 6810589616 
ip 4257080       type 0        full_addr 6810589616 
ip 4257721       type 0        full_addr 6810589616 
ip 4257546       type 0        full_addr 6810589632 
ip 4257546       type 0        full_addr 6810589632 
ip 4257546       type 0        full_addr 6810589632 
ip 4257546       type 0        full_addr 4257008 
ip 4257013       type 1        full_addr 140732062284592 
ip 4257008       type 1        full_addr 4615838512 
ip 4257008       type 1        full_addr 4615838512 
ip 4257008       type 1        full_addr 4615838512 
ip 4257028       type 1        full_addr 140732062284592 
ip 4257076       type 0        full_addr 1278999192 
ip 4257728       type 0        full_addr 7312784064 
ip 4257728       type 0        full_addr 7312784064 
ip 4257728       type 0        full_addr 7312784064 
ip 4257080       type 0        full_addr 7736871344 
ip 4257076       type 0        full_addr 7312784064 
ip 4257546       type 0        full_addr 7736871344 
ip 4257551       type 0        full_addr 1278999192 
ip 4257551       type 0        full_addr 1278999192 
ip 4257080       type 0        full_addr 6810589616 
ip 4257745       type 0        full_addr 4257008 
ip 4257926       type 0        full_addr 7736871344 
ip 4257930       type 0        full_addr 1278999192 
ip 4257728       type 0        full_addr 1278999192 
ip 4257735       type 0        full_addr 1278999192 
ip 4257766       type 1        full_addr 4615838512 
ip 4257008       type 1        full_addr 4615838512 
ip 4257011       type 0        full_addr 4257008 
ip 4257009       type 1        full_addr 4615838512 
ip 4257011       type 1        full_addr 4615838512 
ip 4257739       type 0        full_addr 1278999192 
ip 4257013       type 1        full_addr 4615838512 
ip 4257015       type 1        full_addr 4615838512 
ip 4257017       type 1        full_addr 4615838512 
ip 4257018       type 1        full_addr 4615838512 
ip 4257728       type 0        full_addr 1278999192 

Warmup complete CPU 0 instructions: 102 cycles: 107 (Simulation time: 0 hr 0 min 0 sec) 

ip 4257766       type 1        full_addr 140732062284592 
ip 4257519       type 0        full_addr 4257008 
ip 4257013       type 1        full_addr 140732062284592 
ip 4257546       type 0        full_addr 6810589616 
ip 4257551       type 0        full_addr 7312784064 
ip 4257536       type 0        full_addr 4257008 
ip 4257028       type 1        full_addr 140732062284592 
ip 4257076       type 0        full_addr 1278999192 
ip 4257080       type 0        full_addr 7736871344 
ip 4257546       type 0        full_addr 7736871344 
ip 4257551       type 0        full_addr 1278999192 
ip 4257930       type 0        full_addr 7312784024 
ip 4257551       type 0        full_addr 1278999192 
ip 4257634       type 0        full_addr 4257008 
ip 4257771       type 0        full_addr 4257008 
ip 4257712       type 0        full_addr 4257008 
ip 4257926       type 0        full_addr 7736871344 
ip 4257930       type 0        full_addr 1278999192 
ip 4257926       type 0        full_addr 6810589560 
ip 4257926       type 0        full_addr 6810589560 
ip 4257926       type 0        full_addr 6810589560 
ip 4257721       type 0        full_addr 7736871344 
ip 4257739       type 0        full_addr 7312784128 
ip 4257739       type 0        full_addr 7312784128 
ip 4257739       type 0        full_addr 7312784128 
ip 4257728       type 0        full_addr 7312784224 
ip 4257728       type 0        full_addr 7312784224 
ip 4257728       type 0        full_addr 7312784224 
ip 4257728       type 0        full_addr 7312784264 
ip 4257728       type 0        full_addr 7312784264 
ip 4257728       type 0        full_addr 7312784264 
ip 4257712       type 0        full_addr 1278999192 
ip 4257728       type 0        full_addr 7312784344 
ip 4257728       type 0        full_addr 7312784344 
ip 4257728       type 0        full_addr 7312784344 
Finished CPU 0 instructions: 101 cycles: 385 cumulative IPC: 0.262338 (Simulation time: 0 hr 0 min 0 sec) 

ChampSim completed all CPUs

Region of Interest Statistics

CPU 0 cumulative IPC: 0.262338 instructions: 101 cycles: 385
cpu0_DTLB TOTAL     ACCESS:         12  HIT:         12  MISS:          0
cpu0_DTLB LOAD      ACCESS:          9  HIT:          9  MISS:          0
cpu0_DTLB RFO       ACCESS:          3  HIT:          3  MISS:          0
cpu0_DTLB PREFETCH  ACCESS:          0  HIT:          0  MISS:          0
cpu0_DTLB WRITEBACK ACCESS:          0  HIT:          0  MISS:          0
cpu0_DTLB TRANSLATION ACCESS:          0  HIT:          0  MISS:          0
cpu0_DTLB PREFETCH  REQUESTED:          0  ISSUED:          0  USEFUL:          0  USELESS:          0
cpu0_DTLB AVERAGE MISS LATENCY: -nan cycles
cpu0_ITLB TOTAL     ACCESS:          5  HIT:          5  MISS:          0
cpu0_ITLB LOAD      ACCESS:          5  HIT:          5  MISS:          0
cpu0_ITLB RFO       ACCESS:          0  HIT:          0  MISS:          0
cpu0_ITLB PREFETCH  ACCESS:          0  HIT:          0  MISS:          0
cpu0_ITLB WRITEBACK ACCESS:          0  HIT:          0  MISS:          0
cpu0_ITLB TRANSLATION ACCESS:          0  HIT:          0  MISS:          0
cpu0_ITLB PREFETCH  REQUESTED:          0  ISSUED:          0  USEFUL:          0  USELESS:          0
cpu0_ITLB AVERAGE MISS LATENCY: -nan cycles
cpu0_L1D TOTAL     ACCESS:          8  HIT:          3  MISS:          5
cpu0_L1D LOAD      ACCESS:          8  HIT:          3  MISS:          5
cpu0_L1D RFO       ACCESS:          0  HIT:          0  MISS:          0
cpu0_L1D PREFETCH  ACCESS:          0  HIT:          0  MISS:          0
cpu0_L1D WRITEBACK ACCESS:          0  HIT:          0  MISS:          0
cpu0_L1D TRANSLATION ACCESS:          0  HIT:          0  MISS:          0
cpu0_L1D PREFETCH  REQUESTED:          0  ISSUED:          0  USEFUL:          0  USELESS:          0
cpu0_L1D AVERAGE MISS LATENCY: 289.6 cycles
cpu0_L2C TOTAL     ACCESS:          5  HIT:          0  MISS:          5
cpu0_L2C LOAD      ACCESS:          5  HIT:          0  MISS:          5
cpu0_L2C RFO       ACCESS:          0  HIT:          0  MISS:          0
cpu0_L2C PREFETCH  ACCESS:          0  HIT:          0  MISS:          0
cpu0_L2C WRITEBACK ACCESS:          0  HIT:          0  MISS:          0
cpu0_L2C TRANSLATION ACCESS:          0  HIT:          0  MISS:          0
cpu0_L2C PREFETCH  REQUESTED:          0  ISSUED:          0  USEFUL:          0  USELESS:          0
cpu0_L2C AVERAGE MISS LATENCY: 278.6 cycles
LLC TOTAL     ACCESS:          5  HIT:          0  MISS:          5
LLC LOAD      ACCESS:          5  HIT:          0  MISS:          5
LLC RFO       ACCESS:          0  HIT:          0  MISS:          0
LLC PREFETCH  ACCESS:          0  HIT:          0  MISS:          0
LLC WRITEBACK ACCESS:          0  HIT:          0  MISS:          0
LLC TRANSLATION ACCESS:          0  HIT:          0  MISS:          0
LLC PREFETCH  REQUESTED:          0  ISSUED:          0  USEFUL:          0  USELESS:          0
LLC AVERAGE MISS LATENCY: 257.6 cycles

DRAM Statistics
 CHANNEL 0
 RQ ROW_BUFFER_HIT:          0  ROW_BUFFER_MISS:          5
 DBUS AVG_CONGESTED_CYCLE:    3.64706
 WQ ROW_BUFFER_HIT:          0  ROW_BUFFER_MISS:          0  FULL:          0


CPU 0 Branch Prediction Accuracy: 66.6667% MPKI: 19.4175 Average ROB Occupancy at Mispredict: 116
Branch type MPKI
BRANCH_DIRECT_JUMP: 0
BRANCH_INDIRECT: 0
BRANCH_CONDITIONAL: 19.802
BRANCH_DIRECT_CALL: 0
BRANCH_INDIRECT_CALL: 0
BRANCH_RETURN: 0

