
*** ChampSim Multicore Out-of-Order Simulator ***

Warmup Instructions: 25000000
Simulation Instructions: 25000000
Number of CPUs: 1
Off-chip DRAM Size: 4 GiB Channels: 1 Width: 64-bit Data Rate: 3200 MT/s

VirtualMemory physical capacity: 8588881920 num_ppages: 2096895
VirtualMemory page size: 4096 log2_page_size: 12

CPU 0 runs /home/priyansh/Downloads/CS683/Tracefiles/Project/403.gcc-48B.champsimtrace.xz
CPU 0 Bimodal branch predictor
Basic BTB sets: 1024 ways: 8 indirect buffer size: 4096 RAS size: 64
Heartbeat CPU 0 instructions: 10000003 cycles: 2500146 heartbeat IPC: 3.99977 cumulative IPC: 3.99977 (Simulation time: 0 hr 0 min 14 sec) 
Heartbeat CPU 0 instructions: 20000003 cycles: 5000177 heartbeat IPC: 3.99995 cumulative IPC: 3.99986 (Simulation time: 0 hr 0 min 33 sec) 

Warmup complete CPU 0 instructions: 25000003 cycles: 6250185 (Simulation time: 0 hr 0 min 40 sec) 

Heartbeat CPU 0 instructions: 30000001 cycles: 9593380 heartbeat IPC: 2.17713 cumulative IPC: 1.49557 (Simulation time: 0 hr 0 min 52 sec) 
Heartbeat CPU 0 instructions: 40000000 cycles: 16315967 heartbeat IPC: 1.48752 cumulative IPC: 1.4902 (Simulation time: 0 hr 1 min 17 sec) 
Heartbeat CPU 0 instructions: 50000001 cycles: 23007708 heartbeat IPC: 1.49438 cumulative IPC: 1.49187 (Simulation time: 0 hr 1 min 44 sec) 
Finished CPU 0 instructions: 25000003 cycles: 16757524 cumulative IPC: 1.49187 (Simulation time: 0 hr 1 min 44 sec) 

ChampSim completed all CPUs

Region of Interest Statistics

CPU 0 cumulative IPC: 1.49187 instructions: 25000003 cycles: 16757524
cpu0_DTLB TOTAL     ACCESS:    5907240  HIT:    5902798  MISS:       4442
cpu0_DTLB LOAD      ACCESS:    3251752  HIT:    3247372  MISS:       4380
cpu0_DTLB RFO       ACCESS:    2655488  HIT:    2655426  MISS:         62
cpu0_DTLB PREFETCH  ACCESS:          0  HIT:          0  MISS:          0
cpu0_DTLB WRITEBACK ACCESS:          0  HIT:          0  MISS:          0
cpu0_DTLB TRANSLATION ACCESS:          0  HIT:          0  MISS:          0
cpu0_DTLB PREFETCH  REQUESTED:          0  ISSUED:          0  USEFUL:          0  USELESS:          0
cpu0_DTLB AVERAGE MISS LATENCY: 32.9581 cycles
cpu0_ITLB TOTAL     ACCESS:    1688478  HIT:    1688478  MISS:          0
cpu0_ITLB LOAD      ACCESS:    1688478  HIT:    1688478  MISS:          0
cpu0_ITLB RFO       ACCESS:          0  HIT:          0  MISS:          0
cpu0_ITLB PREFETCH  ACCESS:          0  HIT:          0  MISS:          0
cpu0_ITLB WRITEBACK ACCESS:          0  HIT:          0  MISS:          0
cpu0_ITLB TRANSLATION ACCESS:          0  HIT:          0  MISS:          0
cpu0_ITLB PREFETCH  REQUESTED:          0  ISSUED:          0  USEFUL:          0  USELESS:          0
cpu0_ITLB AVERAGE MISS LATENCY: -nan cycles
cpu0_L1I TOTAL     ACCESS:    4507164  HIT:    4507164  MISS:          0
cpu0_L1I LOAD      ACCESS:    4507164  HIT:    4507164  MISS:          0
cpu0_L1I RFO       ACCESS:          0  HIT:          0  MISS:          0
cpu0_L1I PREFETCH  ACCESS:          0  HIT:          0  MISS:          0
cpu0_L1I WRITEBACK ACCESS:          0  HIT:          0  MISS:          0
cpu0_L1I TRANSLATION ACCESS:          0  HIT:          0  MISS:          0
cpu0_L1I PREFETCH  REQUESTED:          0  ISSUED:          0  USEFUL:          0  USELESS:          0
cpu0_L1I AVERAGE MISS LATENCY: -nan cycles
cpu0_STLB TOTAL     ACCESS:       4442  HIT:       3925  MISS:        517
cpu0_STLB LOAD      ACCESS:       4380  HIT:       3874  MISS:        506
cpu0_STLB RFO       ACCESS:         62  HIT:         51  MISS:         11
cpu0_STLB PREFETCH  ACCESS:          0  HIT:          0  MISS:          0
cpu0_STLB WRITEBACK ACCESS:          0  HIT:          0  MISS:          0
cpu0_STLB TRANSLATION ACCESS:          0  HIT:          0  MISS:          0
cpu0_STLB PREFETCH  REQUESTED:          0  ISSUED:          0  USEFUL:          0  USELESS:          0
cpu0_STLB AVERAGE MISS LATENCY: 205.816 cycles
cpu0_L1D TOTAL     ACCESS:    7481092  HIT:    7459687  MISS:      21405
cpu0_L1D LOAD      ACCESS:    3308111  HIT:    3287542  MISS:      20569
cpu0_L1D RFO       ACCESS:    4172465  HIT:    4171715  MISS:        750
cpu0_L1D PREFETCH  ACCESS:          0  HIT:          0  MISS:          0
cpu0_L1D WRITEBACK ACCESS:          0  HIT:          0  MISS:          0
cpu0_L1D TRANSLATION ACCESS:        516  HIT:        430  MISS:         86
cpu0_L1D PREFETCH  REQUESTED:          0  ISSUED:          0  USEFUL:          0  USELESS:          0
cpu0_L1D AVERAGE MISS LATENCY: 59.5931 cycles
cpu0_L2C TOTAL     ACCESS:      23429  HIT:      17654  MISS:       5775
cpu0_L2C LOAD      ACCESS:      20569  HIT:      15494  MISS:       5075
cpu0_L2C RFO       ACCESS:        750  HIT:         54  MISS:        696
cpu0_L2C PREFETCH  ACCESS:          0  HIT:          0  MISS:          0
cpu0_L2C WRITEBACK ACCESS:       2024  HIT:       2021  MISS:          3
cpu0_L2C TRANSLATION ACCESS:         86  HIT:         85  MISS:          1
cpu0_L2C PREFETCH  REQUESTED:          0  ISSUED:          0  USEFUL:          0  USELESS:          0
cpu0_L2C AVERAGE MISS LATENCY: 180.099 cycles
LLC TOTAL     ACCESS:       6792  HIT:       1064  MISS:       5728
LLC LOAD      ACCESS:       5075  HIT:         43  MISS:       5032
LLC RFO       ACCESS:        696  HIT:          0  MISS:        696
LLC PREFETCH  ACCESS:          0  HIT:          0  MISS:          0
LLC WRITEBACK ACCESS:       1020  HIT:       1020  MISS:          0
LLC TRANSLATION ACCESS:          1  HIT:          1  MISS:          0
LLC PREFETCH  REQUESTED:          0  ISSUED:          0  USEFUL:          0  USELESS:          0
LLC AVERAGE MISS LATENCY: 160.416 cycles

DRAM Statistics
 CHANNEL 0
 RQ ROW_BUFFER_HIT:        230  ROW_BUFFER_MISS:       5498
 DBUS AVG_CONGESTED_CYCLE:    3.54545
 WQ ROW_BUFFER_HIT:          0  ROW_BUFFER_MISS:          0  FULL:          0


CPU 0 Branch Prediction Accuracy: 99.4227% MPKI: 1.28648 Average ROB Occupancy at Mispredict: 49.348
Branch type MPKI
BRANCH_DIRECT_JUMP: 0
BRANCH_INDIRECT: 0
BRANCH_CONDITIONAL: 1.2864
BRANCH_DIRECT_CALL: 0
BRANCH_INDIRECT_CALL: 8e-05
BRANCH_RETURN: 0

