
*** ChampSim Multicore Out-of-Order Simulator ***

Warmup Instructions: 25000000
Simulation Instructions: 25000000
Number of CPUs: 1
Off-chip DRAM Size: 4 GiB Channels: 1 Width: 64-bit Data Rate: 3200 MT/s

VirtualMemory physical capacity: 8588881920 num_ppages: 2096895
VirtualMemory page size: 4096 log2_page_size: 12

CPU 0 runs /home/priyansh/Downloads/CS683/Tracefiles/Project/483.xalancbmk-127B.champsimtrace.xz
CPU 0 Bimodal branch predictor
Basic BTB sets: 1024 ways: 8 indirect buffer size: 4096 RAS size: 64
Heartbeat CPU 0 instructions: 10000000 cycles: 2864263 heartbeat IPC: 3.4913 cumulative IPC: 3.4913 (Simulation time: 0 hr 0 min 17 sec) 
Heartbeat CPU 0 instructions: 20000000 cycles: 5724288 heartbeat IPC: 3.49647 cumulative IPC: 3.49388 (Simulation time: 0 hr 0 min 35 sec) 

Warmup complete CPU 0 instructions: 25000003 cycles: 7150575 (Simulation time: 0 hr 0 min 43 sec) 

Heartbeat CPU 0 instructions: 30000000 cycles: 25254411 heartbeat IPC: 0.51203 cumulative IPC: 0.276184 (Simulation time: 0 hr 0 min 57 sec) 
Heartbeat CPU 0 instructions: 40000000 cycles: 59249876 heartbeat IPC: 0.294157 cumulative IPC: 0.287912 (Simulation time: 0 hr 1 min 23 sec) 
Heartbeat CPU 0 instructions: 50000000 cycles: 94698191 heartbeat IPC: 0.282101 cumulative IPC: 0.285559 (Simulation time: 0 hr 1 min 51 sec) 
Finished CPU 0 instructions: 25000000 cycles: 87547719 cumulative IPC: 0.285559 (Simulation time: 0 hr 1 min 51 sec) 

ChampSim completed all CPUs

Region of Interest Statistics

CPU 0 cumulative IPC: 0.285559 instructions: 25000000 cycles: 87547719
cpu0_DTLB TOTAL     ACCESS:    5540290  HIT:    5452663  MISS:      87627
cpu0_DTLB LOAD      ACCESS:    5121993  HIT:    5035676  MISS:      86317
cpu0_DTLB RFO       ACCESS:     418297  HIT:     416987  MISS:       1310
cpu0_DTLB PREFETCH  ACCESS:          0  HIT:          0  MISS:          0
cpu0_DTLB WRITEBACK ACCESS:          0  HIT:          0  MISS:          0
cpu0_DTLB TRANSLATION ACCESS:          0  HIT:          0  MISS:          0
cpu0_DTLB PREFETCH  REQUESTED:          0  ISSUED:          0  USEFUL:          0  USELESS:          0
cpu0_DTLB AVERAGE MISS LATENCY: 35.0898 cycles
cpu0_ITLB TOTAL     ACCESS:    3394883  HIT:    3390445  MISS:       4438
cpu0_ITLB LOAD      ACCESS:    3394883  HIT:    3390445  MISS:       4438
cpu0_ITLB RFO       ACCESS:          0  HIT:          0  MISS:          0
cpu0_ITLB PREFETCH  ACCESS:          0  HIT:          0  MISS:          0
cpu0_ITLB WRITEBACK ACCESS:          0  HIT:          0  MISS:          0
cpu0_ITLB TRANSLATION ACCESS:          0  HIT:          0  MISS:          0
cpu0_ITLB PREFETCH  REQUESTED:          0  ISSUED:          0  USEFUL:          0  USELESS:          0
cpu0_ITLB AVERAGE MISS LATENCY: 11.815 cycles
cpu0_L1I TOTAL     ACCESS:     116559  HIT:      93910  MISS:      22649
cpu0_L1I LOAD      ACCESS:     116559  HIT:      93910  MISS:      22649
cpu0_L1I RFO       ACCESS:          0  HIT:          0  MISS:          0
cpu0_L1I PREFETCH  ACCESS:          0  HIT:          0  MISS:          0
cpu0_L1I WRITEBACK ACCESS:          0  HIT:          0  MISS:          0
cpu0_L1I TRANSLATION ACCESS:          0  HIT:          0  MISS:          0
cpu0_L1I PREFETCH  REQUESTED:          0  ISSUED:          0  USEFUL:          0  USELESS:          0
cpu0_L1I AVERAGE MISS LATENCY: 88.9525 cycles
cpu0_STLB TOTAL     ACCESS:      92065  HIT:      12665  MISS:      79400
cpu0_STLB LOAD      ACCESS:      90755  HIT:      11670  MISS:      79085
cpu0_STLB RFO       ACCESS:       1310  HIT:        995  MISS:        315
cpu0_STLB PREFETCH  ACCESS:          0  HIT:          0  MISS:          0
cpu0_STLB WRITEBACK ACCESS:          0  HIT:          0  MISS:          0
cpu0_STLB TRANSLATION ACCESS:          0  HIT:          0  MISS:          0
cpu0_STLB PREFETCH  REQUESTED:          0  ISSUED:          0  USEFUL:          0  USELESS:          0
cpu0_STLB AVERAGE MISS LATENCY: 28.8812 cycles
cpu0_L1D TOTAL     ACCESS:    4732959  HIT:    4035695  MISS:     697264
cpu0_L1D LOAD      ACCESS:    3888488  HIT:    3197822  MISS:     690666
cpu0_L1D RFO       ACCESS:     773225  HIT:     767974  MISS:       5251
cpu0_L1D PREFETCH  ACCESS:          0  HIT:          0  MISS:          0
cpu0_L1D WRITEBACK ACCESS:          0  HIT:          0  MISS:          0
cpu0_L1D TRANSLATION ACCESS:      71246  HIT:      69899  MISS:       1347
cpu0_L1D PREFETCH  REQUESTED:          0  ISSUED:          0  USEFUL:          0  USELESS:          0
cpu0_L1D AVERAGE MISS LATENCY: 176.019 cycles
cpu0_L2C TOTAL     ACCESS:     728394  HIT:      25338  MISS:     703056
cpu0_L2C LOAD      ACCESS:     713315  HIT:      15368  MISS:     697947
cpu0_L2C RFO       ACCESS:       5251  HIT:        469  MISS:       4782
cpu0_L2C PREFETCH  ACCESS:          0  HIT:          0  MISS:          0
cpu0_L2C WRITEBACK ACCESS:       8481  HIT:       8409  MISS:         72
cpu0_L2C TRANSLATION ACCESS:       1347  HIT:       1092  MISS:        255
cpu0_L2C PREFETCH  REQUESTED:          0  ISSUED:          0  USEFUL:          0  USELESS:          0
cpu0_L2C AVERAGE MISS LATENCY: 166.049 cycles
LLC TOTAL     ACCESS:     710255  HIT:      49871  MISS:     660384
LLC LOAD      ACCESS:     697947  HIT:      42262  MISS:     655685
LLC RFO       ACCESS:       4782  HIT:        262  MISS:       4520
LLC PREFETCH  ACCESS:          0  HIT:          0  MISS:          0
LLC WRITEBACK ACCESS:       7271  HIT:       7219  MISS:         52
LLC TRANSLATION ACCESS:        255  HIT:        128  MISS:        127
LLC PREFETCH  REQUESTED:          0  ISSUED:          0  USEFUL:          0  USELESS:          0
LLC AVERAGE MISS LATENCY: 154.424 cycles

DRAM Statistics
 CHANNEL 0
 RQ ROW_BUFFER_HIT:     196611  ROW_BUFFER_MISS:     463721
 DBUS AVG_CONGESTED_CYCLE:     3.8943
 WQ ROW_BUFFER_HIT:       3410  ROW_BUFFER_MISS:       3258  FULL:          0


CPU 0 Branch Prediction Accuracy: 91.3908% MPKI: 24.688 Average ROB Occupancy at Mispredict: 22.3293
Branch type MPKI
BRANCH_DIRECT_JUMP: 0.00052
BRANCH_INDIRECT: 0.0044
BRANCH_CONDITIONAL: 24.6157
BRANCH_DIRECT_CALL: 0.00044
BRANCH_INDIRECT_CALL: 0.0162
BRANCH_RETURN: 0.05076

