
*** ChampSim Multicore Out-of-Order Simulator ***

Warmup Instructions: 25000000
Simulation Instructions: 25000000
Number of CPUs: 1
Off-chip DRAM Size: 4 GiB Channels: 1 Width: 64-bit Data Rate: 3200 MT/s

VirtualMemory physical capacity: 8588881920 num_ppages: 2096895
VirtualMemory page size: 4096 log2_page_size: 12

CPU 0 runs /home/priyansh/Downloads/CS683/Tracefiles/Project/403.gcc-17B.champsimtrace.xz
CPU 0 Bimodal branch predictor
Basic BTB sets: 1024 ways: 8 indirect buffer size: 4096 RAS size: 64
Heartbeat CPU 0 instructions: 10000001 cycles: 2500122 heartbeat IPC: 3.99981 cumulative IPC: 3.99981 (Simulation time: 0 hr 0 min 15 sec) 
Heartbeat CPU 0 instructions: 20000001 cycles: 5014285 heartbeat IPC: 3.97747 cumulative IPC: 3.9886 (Simulation time: 0 hr 0 min 29 sec) 

Warmup complete CPU 0 instructions: 25000001 cycles: 6264285 (Simulation time: 0 hr 0 min 36 sec) 

Heartbeat CPU 0 instructions: 30000004 cycles: 28329779 heartbeat IPC: 0.428899 cumulative IPC: 0.226598 (Simulation time: 0 hr 2 min 20 sec) 
Heartbeat CPU 0 instructions: 40000000 cycles: 75567591 heartbeat IPC: 0.211695 cumulative IPC: 0.21644 (Simulation time: 0 hr 6 min 6 sec) 
Heartbeat CPU 0 instructions: 50000002 cycles: 94501252 heartbeat IPC: 0.52816 cumulative IPC: 0.283328 (Simulation time: 0 hr 6 min 28 sec) 
Finished CPU 0 instructions: 25000001 cycles: 88236967 cumulative IPC: 0.283328 (Simulation time: 0 hr 6 min 28 sec) 

ChampSim completed all CPUs

Region of Interest Statistics

CPU 0 cumulative IPC: 0.283328 instructions: 25000001 cycles: 88236967
cpu0_DTLB TOTAL     ACCESS:    5469426  HIT:    5285383  MISS:     184043
cpu0_DTLB LOAD      ACCESS:    2277820  HIT:    2115618  MISS:     162202
cpu0_DTLB RFO       ACCESS:    3191606  HIT:    3169765  MISS:      21841
cpu0_DTLB PREFETCH  ACCESS:          0  HIT:          0  MISS:          0
cpu0_DTLB WRITEBACK ACCESS:          0  HIT:          0  MISS:          0
cpu0_DTLB TRANSLATION ACCESS:          0  HIT:          0  MISS:          0
cpu0_DTLB PREFETCH  REQUESTED:          0  ISSUED:          0  USEFUL:          0  USELESS:          0
cpu0_DTLB AVERAGE MISS LATENCY: 31.5968 cycles
cpu0_ITLB TOTAL     ACCESS:    1716880  HIT:    1716133  MISS:        747
cpu0_ITLB LOAD      ACCESS:    1716880  HIT:    1716133  MISS:        747
cpu0_ITLB RFO       ACCESS:          0  HIT:          0  MISS:          0
cpu0_ITLB PREFETCH  ACCESS:          0  HIT:          0  MISS:          0
cpu0_ITLB WRITEBACK ACCESS:          0  HIT:          0  MISS:          0
cpu0_ITLB TRANSLATION ACCESS:          0  HIT:          0  MISS:          0
cpu0_ITLB PREFETCH  REQUESTED:          0  ISSUED:          0  USEFUL:          0  USELESS:          0
cpu0_ITLB AVERAGE MISS LATENCY: 13.1499 cycles
cpu0_L1I TOTAL     ACCESS:    1579399  HIT:    1578419  MISS:        980
cpu0_L1I LOAD      ACCESS:    1579399  HIT:    1578419  MISS:        980
cpu0_L1I RFO       ACCESS:          0  HIT:          0  MISS:          0
cpu0_L1I PREFETCH  ACCESS:          0  HIT:          0  MISS:          0
cpu0_L1I WRITEBACK ACCESS:          0  HIT:          0  MISS:          0
cpu0_L1I TRANSLATION ACCESS:          0  HIT:          0  MISS:          0
cpu0_L1I PREFETCH  REQUESTED:          0  ISSUED:          0  USEFUL:          0  USELESS:          0
cpu0_L1I AVERAGE MISS LATENCY: 89.7347 cycles
cpu0_STLB TOTAL     ACCESS:     184790  HIT:     158004  MISS:      26786
cpu0_STLB LOAD      ACCESS:     162949  HIT:     152636  MISS:      10313
cpu0_STLB RFO       ACCESS:      21841  HIT:       5368  MISS:      16473
cpu0_STLB PREFETCH  ACCESS:          0  HIT:          0  MISS:          0
cpu0_STLB WRITEBACK ACCESS:          0  HIT:          0  MISS:          0
cpu0_STLB TRANSLATION ACCESS:          0  HIT:          0  MISS:          0
cpu0_STLB PREFETCH  REQUESTED:          0  ISSUED:          0  USEFUL:          0  USELESS:          0
cpu0_STLB AVERAGE MISS LATENCY: 154.824 cycles
cpu0_L1D TOTAL     ACCESS:    4850148  HIT:    3758715  MISS:    1091433
cpu0_L1D LOAD      ACCESS:    2176038  HIT:    2017903  MISS:     158135
cpu0_L1D RFO       ACCESS:    2647345  HIT:    1714398  MISS:     932947
cpu0_L1D PREFETCH  ACCESS:          0  HIT:          0  MISS:          0
cpu0_L1D WRITEBACK ACCESS:          0  HIT:          0  MISS:          0
cpu0_L1D TRANSLATION ACCESS:      26765  HIT:      26414  MISS:        351
cpu0_L1D PREFETCH  REQUESTED:          0  ISSUED:          0  USEFUL:          0  USELESS:          0
cpu0_L1D AVERAGE MISS LATENCY: 856.843 cycles
cpu0_L2C TOTAL     ACCESS:    2051170  HIT:    1010371  MISS:    1040799
cpu0_L2C LOAD      ACCESS:     159114  HIT:      50942  MISS:     108172
cpu0_L2C RFO       ACCESS:     932947  HIT:        439  MISS:     932508
cpu0_L2C PREFETCH  ACCESS:          0  HIT:          0  MISS:          0
cpu0_L2C WRITEBACK ACCESS:     958758  HIT:     958689  MISS:         69
cpu0_L2C TRANSLATION ACCESS:        351  HIT:        301  MISS:         50
cpu0_L2C PREFETCH  REQUESTED:          0  ISSUED:          0  USEFUL:          0  USELESS:          0
cpu0_L2C AVERAGE MISS LATENCY: 887.062 cycles
LLC TOTAL     ACCESS:    1995156  HIT:     957315  MISS:    1037841
LLC LOAD      ACCESS:     108171  HIT:       2795  MISS:     105376
LLC RFO       ACCESS:     932508  HIT:        196  MISS:     932312
LLC PREFETCH  ACCESS:          0  HIT:          0  MISS:          0
LLC WRITEBACK ACCESS:     954427  HIT:     954304  MISS:        123
LLC TRANSLATION ACCESS:         50  HIT:         20  MISS:         30
LLC PREFETCH  REQUESTED:          0  ISSUED:          0  USEFUL:          0  USELESS:          0
LLC AVERAGE MISS LATENCY: 868.532 cycles

DRAM Statistics
 CHANNEL 0
 RQ ROW_BUFFER_HIT:     221139  ROW_BUFFER_MISS:     816579
 DBUS AVG_CONGESTED_CYCLE:    3.99092
 WQ ROW_BUFFER_HIT:     190838  ROW_BUFFER_MISS:     756472  FULL:          0


CPU 0 Branch Prediction Accuracy: 93.2415% MPKI: 12.5892 Average ROB Occupancy at Mispredict: 57.4894
Branch type MPKI
BRANCH_DIRECT_JUMP: 0.00412
BRANCH_INDIRECT: 0.44728
BRANCH_CONDITIONAL: 12.1227
BRANCH_DIRECT_CALL: 0.00508
BRANCH_INDIRECT_CALL: 0.00304
BRANCH_RETURN: 0.007

