
*** ChampSim Multicore Out-of-Order Simulator ***

Warmup Instructions: 25000000
Simulation Instructions: 25000000
Number of CPUs: 1
Off-chip DRAM Size: 4 GiB Channels: 1 Width: 64-bit Data Rate: 3200 MT/s

VirtualMemory physical capacity: 8588881920 num_ppages: 2096895
VirtualMemory page size: 4096 log2_page_size: 12

CPU 0 runs /home/priyansh/Downloads/CS683/Tracefiles/Project/429.mcf-192B.champsimtrace.xz
CPU 0 Bimodal branch predictor
Basic BTB sets: 1024 ways: 8 indirect buffer size: 4096 RAS size: 64
Heartbeat CPU 0 instructions: 10000000 cycles: 3103913 heartbeat IPC: 3.22174 cumulative IPC: 3.22174 (Simulation time: 0 hr 0 min 21 sec) 
Heartbeat CPU 0 instructions: 20000004 cycles: 6205936 heartbeat IPC: 3.2237 cumulative IPC: 3.22272 (Simulation time: 0 hr 0 min 41 sec) 

Warmup complete CPU 0 instructions: 25000005 cycles: 7756213 (Simulation time: 0 hr 0 min 51 sec) 

Heartbeat CPU 0 instructions: 30000004 cycles: 74034822 heartbeat IPC: 0.14743 cumulative IPC: 0.0754391 (Simulation time: 0 hr 1 min 36 sec) 
Heartbeat CPU 0 instructions: 40000000 cycles: 207180086 heartbeat IPC: 0.0751059 cumulative IPC: 0.0752166 (Simulation time: 0 hr 3 min 15 sec) 
Heartbeat CPU 0 instructions: 50000002 cycles: 339050906 heartbeat IPC: 0.0758318 cumulative IPC: 0.0754615 (Simulation time: 0 hr 4 min 46 sec) 
Finished CPU 0 instructions: 25000000 cycles: 331294694 cumulative IPC: 0.0754615 (Simulation time: 0 hr 4 min 46 sec) 

ChampSim completed all CPUs

Region of Interest Statistics

CPU 0 cumulative IPC: 0.0754615 instructions: 25000000 cycles: 331294694
cpu0_DTLB TOTAL     ACCESS:    5192328  HIT:    1534432  MISS:    3657896
cpu0_DTLB LOAD      ACCESS:    5176795  HIT:    1520645  MISS:    3656150
cpu0_DTLB RFO       ACCESS:      15533  HIT:      13787  MISS:       1746
cpu0_DTLB PREFETCH  ACCESS:          0  HIT:          0  MISS:          0
cpu0_DTLB WRITEBACK ACCESS:          0  HIT:          0  MISS:          0
cpu0_DTLB TRANSLATION ACCESS:          0  HIT:          0  MISS:          0
cpu0_DTLB PREFETCH  REQUESTED:          0  ISSUED:          0  USEFUL:          0  USELESS:          0
cpu0_DTLB AVERAGE MISS LATENCY: 10.4383 cycles
cpu0_ITLB TOTAL     ACCESS:    2760399  HIT:    2760399  MISS:          0
cpu0_ITLB LOAD      ACCESS:    2760399  HIT:    2760399  MISS:          0
cpu0_ITLB RFO       ACCESS:          0  HIT:          0  MISS:          0
cpu0_ITLB PREFETCH  ACCESS:          0  HIT:          0  MISS:          0
cpu0_ITLB WRITEBACK ACCESS:          0  HIT:          0  MISS:          0
cpu0_ITLB TRANSLATION ACCESS:          0  HIT:          0  MISS:          0
cpu0_ITLB PREFETCH  REQUESTED:          0  ISSUED:          0  USEFUL:          0  USELESS:          0
cpu0_ITLB AVERAGE MISS LATENCY: -nan cycles
cpu0_STLB TOTAL     ACCESS:    3657896  HIT:    3592617  MISS:      65279
cpu0_STLB LOAD      ACCESS:    3656150  HIT:    3591056  MISS:      65094
cpu0_STLB RFO       ACCESS:       1746  HIT:       1561  MISS:        185
cpu0_STLB PREFETCH  ACCESS:          0  HIT:          0  MISS:          0
cpu0_STLB WRITEBACK ACCESS:          0  HIT:          0  MISS:          0
cpu0_STLB TRANSLATION ACCESS:          0  HIT:          0  MISS:          0
cpu0_STLB PREFETCH  REQUESTED:          0  ISSUED:          0  USEFUL:          0  USELESS:          0
cpu0_STLB AVERAGE MISS LATENCY: 80.5754 cycles
cpu0_L1D TOTAL     ACCESS:    5271620  HIT:    1726589  MISS:    3545031
cpu0_L1D LOAD      ACCESS:    5178068  HIT:    1655087  MISS:    3522981
cpu0_L1D RFO       ACCESS:      28322  HIT:      27632  MISS:        690
cpu0_L1D PREFETCH  ACCESS:          0  HIT:          0  MISS:          0
cpu0_L1D WRITEBACK ACCESS:          0  HIT:          0  MISS:          0
cpu0_L1D TRANSLATION ACCESS:      65230  HIT:      43870  MISS:      21360
cpu0_L1D PREFETCH  REQUESTED:          0  ISSUED:          0  USEFUL:          0  USELESS:          0
cpu0_L1D AVERAGE MISS LATENCY: 217.269 cycles
cpu0_L2C TOTAL     ACCESS:    3552246  HIT:     996497  MISS:    2555749
cpu0_L2C LOAD      ACCESS:    3522979  HIT:     987333  MISS:    2535646
cpu0_L2C RFO       ACCESS:        690  HIT:        170  MISS:        520
cpu0_L2C PREFETCH  ACCESS:          0  HIT:          0  MISS:          0
cpu0_L2C WRITEBACK ACCESS:       7217  HIT:       7217  MISS:          0
cpu0_L2C TRANSLATION ACCESS:      21360  HIT:       1777  MISS:      19583
cpu0_L2C PREFETCH  REQUESTED:          0  ISSUED:          0  USEFUL:          0  USELESS:          0
cpu0_L2C AVERAGE MISS LATENCY: 286.11 cycles
LLC TOTAL     ACCESS:    2561621  HIT:     752796  MISS:    1808825
LLC LOAD      ACCESS:    2535645  HIT:     727410  MISS:    1808235
LLC RFO       ACCESS:        520  HIT:        222  MISS:        298
LLC PREFETCH  ACCESS:          0  HIT:          0  MISS:          0
LLC WRITEBACK ACCESS:       5873  HIT:       5846  MISS:         27
LLC TRANSLATION ACCESS:      19583  HIT:      19318  MISS:        265
LLC PREFETCH  REQUESTED:          0  ISSUED:          0  USEFUL:          0  USELESS:          0
LLC AVERAGE MISS LATENCY: 374.582 cycles

DRAM Statistics
 CHANNEL 0
 RQ ROW_BUFFER_HIT:       1092  ROW_BUFFER_MISS:    1807706
 DBUS AVG_CONGESTED_CYCLE:    3.99341
 WQ ROW_BUFFER_HIT:       2996  ROW_BUFFER_MISS:       1120  FULL:          0


CPU 0 Branch Prediction Accuracy: 90.9995% MPKI: 21.6133 Average ROB Occupancy at Mispredict: 27.6745
Branch type MPKI
BRANCH_DIRECT_JUMP: 0
BRANCH_INDIRECT: 0
BRANCH_CONDITIONAL: 21.6133
BRANCH_DIRECT_CALL: 0
BRANCH_INDIRECT_CALL: 0
BRANCH_RETURN: 0

