
*** ChampSim Multicore Out-of-Order Simulator ***

Warmup Instructions: 25000000
Simulation Instructions: 25000000
Number of CPUs: 1
Off-chip DRAM Size: 4 GiB Channels: 1 Width: 64-bit Data Rate: 3200 MT/s

VirtualMemory physical capacity: 8588881920 num_ppages: 2096895
VirtualMemory page size: 4096 log2_page_size: 12

CPU 0 runs /home/priyansh/Downloads/CS683/Tracefiles/Project/483.xalancbmk-736B.champsimtrace.xz
CPU 0 Bimodal branch predictor
Basic BTB sets: 1024 ways: 8 indirect buffer size: 4096 RAS size: 64
Heartbeat CPU 0 instructions: 10000003 cycles: 2625397 heartbeat IPC: 3.80895 cumulative IPC: 3.80895 (Simulation time: 0 hr 0 min 14 sec) 
Heartbeat CPU 0 instructions: 20000002 cycles: 5253997 heartbeat IPC: 3.80431 cumulative IPC: 3.80663 (Simulation time: 0 hr 0 min 29 sec) 

Warmup complete CPU 0 instructions: 25000003 cycles: 6568898 (Simulation time: 0 hr 0 min 36 sec) 

Heartbeat CPU 0 instructions: 30000003 cycles: 9183508 heartbeat IPC: 2.54485 cumulative IPC: 1.91233 (Simulation time: 0 hr 0 min 47 sec) 
Heartbeat CPU 0 instructions: 40000002 cycles: 13321826 heartbeat IPC: 2.41644 cumulative IPC: 2.22126 (Simulation time: 0 hr 1 min 8 sec) 
Heartbeat CPU 0 instructions: 50000003 cycles: 17266199 heartbeat IPC: 2.53526 cumulative IPC: 2.33704 (Simulation time: 0 hr 1 min 32 sec) 
Finished CPU 0 instructions: 25000000 cycles: 10697301 cumulative IPC: 2.33704 (Simulation time: 0 hr 1 min 32 sec) 

ChampSim completed all CPUs

Region of Interest Statistics

CPU 0 cumulative IPC: 2.33704 instructions: 25000000 cycles: 10697301
cpu0_DTLB TOTAL     ACCESS:    3238990  HIT:    3055944  MISS:     183046
cpu0_DTLB LOAD      ACCESS:    2810388  HIT:    2630324  MISS:     180064
cpu0_DTLB RFO       ACCESS:     428602  HIT:     425620  MISS:       2982
cpu0_DTLB PREFETCH  ACCESS:          0  HIT:          0  MISS:          0
cpu0_DTLB WRITEBACK ACCESS:          0  HIT:          0  MISS:          0
cpu0_DTLB TRANSLATION ACCESS:          0  HIT:          0  MISS:          0
cpu0_DTLB PREFETCH  REQUESTED:          0  ISSUED:          0  USEFUL:          0  USELESS:          0
cpu0_DTLB AVERAGE MISS LATENCY: 10.2083 cycles
cpu0_ITLB TOTAL     ACCESS:     408718  HIT:     404730  MISS:       3988
cpu0_ITLB LOAD      ACCESS:     408718  HIT:     404730  MISS:       3988
cpu0_ITLB RFO       ACCESS:          0  HIT:          0  MISS:          0
cpu0_ITLB PREFETCH  ACCESS:          0  HIT:          0  MISS:          0
cpu0_ITLB WRITEBACK ACCESS:          0  HIT:          0  MISS:          0
cpu0_ITLB TRANSLATION ACCESS:          0  HIT:          0  MISS:          0
cpu0_ITLB PREFETCH  REQUESTED:          0  ISSUED:          0  USEFUL:          0  USELESS:          0
cpu0_ITLB AVERAGE MISS LATENCY: 9.85281 cycles
cpu0_L1I TOTAL     ACCESS:     238190  HIT:     235827  MISS:       2363
cpu0_L1I LOAD      ACCESS:     238190  HIT:     235827  MISS:       2363
cpu0_L1I RFO       ACCESS:          0  HIT:          0  MISS:          0
cpu0_L1I PREFETCH  ACCESS:          0  HIT:          0  MISS:          0
cpu0_L1I WRITEBACK ACCESS:          0  HIT:          0  MISS:          0
cpu0_L1I TRANSLATION ACCESS:          0  HIT:          0  MISS:          0
cpu0_L1I PREFETCH  REQUESTED:          0  ISSUED:          0  USEFUL:          0  USELESS:          0
cpu0_L1I AVERAGE MISS LATENCY: 23.3635 cycles
cpu0_STLB TOTAL     ACCESS:     187034  HIT:     184959  MISS:       2075
cpu0_STLB LOAD      ACCESS:     184052  HIT:     182840  MISS:       1212
cpu0_STLB RFO       ACCESS:       2982  HIT:       2119  MISS:        863
cpu0_STLB PREFETCH  ACCESS:          0  HIT:          0  MISS:          0
cpu0_STLB WRITEBACK ACCESS:          0  HIT:          0  MISS:          0
cpu0_STLB TRANSLATION ACCESS:          0  HIT:          0  MISS:          0
cpu0_STLB PREFETCH  REQUESTED:          0  ISSUED:          0  USEFUL:          0  USELESS:          0
cpu0_STLB AVERAGE MISS LATENCY: 107.691 cycles
cpu0_L1D TOTAL     ACCESS:    1999838  HIT:    1058202  MISS:     941636
cpu0_L1D LOAD      ACCESS:    1536790  HIT:     625520  MISS:     911270
cpu0_L1D RFO       ACCESS:     460977  HIT:     432077  MISS:      28900
cpu0_L1D PREFETCH  ACCESS:          0  HIT:          0  MISS:          0
cpu0_L1D WRITEBACK ACCESS:          0  HIT:          0  MISS:          0
cpu0_L1D TRANSLATION ACCESS:       2071  HIT:        605  MISS:       1466
cpu0_L1D PREFETCH  REQUESTED:          0  ISSUED:          0  USEFUL:          0  USELESS:          0
cpu0_L1D AVERAGE MISS LATENCY: 22.4505 cycles
cpu0_L2C TOTAL     ACCESS:     986856  HIT:     959176  MISS:      27680
cpu0_L2C LOAD      ACCESS:     913633  HIT:     907560  MISS:       6073
cpu0_L2C RFO       ACCESS:      28900  HIT:       7359  MISS:      21541
cpu0_L2C PREFETCH  ACCESS:          0  HIT:          0  MISS:          0
cpu0_L2C WRITEBACK ACCESS:      42857  HIT:      42857  MISS:          0
cpu0_L2C TRANSLATION ACCESS:       1466  HIT:       1400  MISS:         66
cpu0_L2C PREFETCH  REQUESTED:          0  ISSUED:          0  USEFUL:          0  USELESS:          0
cpu0_L2C AVERAGE MISS LATENCY: 386.93 cycles
LLC TOTAL     ACCESS:      52499  HIT:      29719  MISS:      22780
LLC LOAD      ACCESS:       6073  HIT:       4603  MISS:       1470
LLC RFO       ACCESS:      21541  HIT:        257  MISS:      21284
LLC PREFETCH  ACCESS:          0  HIT:          0  MISS:          0
LLC WRITEBACK ACCESS:      24819  HIT:      24799  MISS:         20
LLC TRANSLATION ACCESS:         66  HIT:         60  MISS:          6
LLC PREFETCH  REQUESTED:          0  ISSUED:          0  USEFUL:          0  USELESS:          0
LLC AVERAGE MISS LATENCY: 444.642 cycles

DRAM Statistics
 CHANNEL 0
 RQ ROW_BUFFER_HIT:       8831  ROW_BUFFER_MISS:      13929
 DBUS AVG_CONGESTED_CYCLE:    3.97508
 WQ ROW_BUFFER_HIT:       2081  ROW_BUFFER_MISS:      20467  FULL:          0


CPU 0 Branch Prediction Accuracy: 99.2459% MPKI: 2.08576 Average ROB Occupancy at Mispredict: 52.1311
Branch type MPKI
BRANCH_DIRECT_JUMP: 0.001
BRANCH_INDIRECT: 0.0532
BRANCH_CONDITIONAL: 1.73048
BRANCH_DIRECT_CALL: 0.00176
BRANCH_INDIRECT_CALL: 0.06188
BRANCH_RETURN: 0.23744

