
*** ChampSim Multicore Out-of-Order Simulator ***

Warmup Instructions: 25000000
Simulation Instructions: 25000000
Number of CPUs: 1
Off-chip DRAM Size: 4 GiB Channels: 1 Width: 64-bit Data Rate: 3200 MT/s

VirtualMemory physical capacity: 8588881920 num_ppages: 2096895
VirtualMemory page size: 4096 log2_page_size: 12

CPU 0 runs /home/priyansh/Downloads/CS683/Tracefiles/Project/471.omnetpp-188B.champsimtrace.xz
CPU 0 Bimodal branch predictor
Basic BTB sets: 1024 ways: 8 indirect buffer size: 4096 RAS size: 64
Heartbeat CPU 0 instructions: 10000001 cycles: 2500343 heartbeat IPC: 3.99945 cumulative IPC: 3.99945 (Simulation time: 0 hr 0 min 16 sec) 
Heartbeat CPU 0 instructions: 20000002 cycles: 5000349 heartbeat IPC: 3.99999 cumulative IPC: 3.99972 (Simulation time: 0 hr 0 min 32 sec) 

Warmup complete CPU 0 instructions: 25000002 cycles: 6250349 (Simulation time: 0 hr 0 min 40 sec) 

Heartbeat CPU 0 instructions: 30000002 cycles: 21382468 heartbeat IPC: 0.610422 cumulative IPC: 0.330423 (Simulation time: 0 hr 0 min 58 sec) 
Heartbeat CPU 0 instructions: 40000002 cycles: 46981990 heartbeat IPC: 0.390632 cumulative IPC: 0.368264 (Simulation time: 0 hr 1 min 26 sec) 
Heartbeat CPU 0 instructions: 50000001 cycles: 76503360 heartbeat IPC: 0.338738 cumulative IPC: 0.355857 (Simulation time: 0 hr 1 min 58 sec) 
Finished CPU 0 instructions: 25000004 cycles: 70253012 cumulative IPC: 0.355857 (Simulation time: 0 hr 1 min 58 sec) 

ChampSim completed all CPUs

Region of Interest Statistics

CPU 0 cumulative IPC: 0.355857 instructions: 25000004 cycles: 70253012
cpu0_DTLB TOTAL     ACCESS:    6172018  HIT:    5676837  MISS:     495181
cpu0_DTLB LOAD      ACCESS:    3748454  HIT:    3338657  MISS:     409797
cpu0_DTLB RFO       ACCESS:    2423564  HIT:    2338180  MISS:      85384
cpu0_DTLB PREFETCH  ACCESS:          0  HIT:          0  MISS:          0
cpu0_DTLB WRITEBACK ACCESS:          0  HIT:          0  MISS:          0
cpu0_DTLB TRANSLATION ACCESS:          0  HIT:          0  MISS:          0
cpu0_DTLB PREFETCH  REQUESTED:          0  ISSUED:          0  USEFUL:          0  USELESS:          0
cpu0_DTLB AVERAGE MISS LATENCY: 12.5919 cycles
cpu0_ITLB TOTAL     ACCESS:    2800971  HIT:    2788407  MISS:      12564
cpu0_ITLB LOAD      ACCESS:    2800971  HIT:    2788407  MISS:      12564
cpu0_ITLB RFO       ACCESS:          0  HIT:          0  MISS:          0
cpu0_ITLB PREFETCH  ACCESS:          0  HIT:          0  MISS:          0
cpu0_ITLB WRITEBACK ACCESS:          0  HIT:          0  MISS:          0
cpu0_ITLB TRANSLATION ACCESS:          0  HIT:          0  MISS:          0
cpu0_ITLB PREFETCH  REQUESTED:          0  ISSUED:          0  USEFUL:          0  USELESS:          0
cpu0_ITLB AVERAGE MISS LATENCY: 9.14995 cycles
cpu0_L1I TOTAL     ACCESS:    2157904  HIT:    2157273  MISS:        631
cpu0_L1I LOAD      ACCESS:    2157904  HIT:    2157273  MISS:        631
cpu0_L1I RFO       ACCESS:          0  HIT:          0  MISS:          0
cpu0_L1I PREFETCH  ACCESS:          0  HIT:          0  MISS:          0
cpu0_L1I WRITEBACK ACCESS:          0  HIT:          0  MISS:          0
cpu0_L1I TRANSLATION ACCESS:          0  HIT:          0  MISS:          0
cpu0_L1I PREFETCH  REQUESTED:          0  ISSUED:          0  USEFUL:          0  USELESS:          0
cpu0_L1I AVERAGE MISS LATENCY: 153.548 cycles
cpu0_STLB TOTAL     ACCESS:     507745  HIT:     398681  MISS:     109064
cpu0_STLB LOAD      ACCESS:     422361  HIT:     344747  MISS:      77614
cpu0_STLB RFO       ACCESS:      85384  HIT:      53934  MISS:      31450
cpu0_STLB PREFETCH  ACCESS:          0  HIT:          0  MISS:          0
cpu0_STLB WRITEBACK ACCESS:          0  HIT:          0  MISS:          0
cpu0_STLB TRANSLATION ACCESS:          0  HIT:          0  MISS:          0
cpu0_STLB PREFETCH  REQUESTED:          0  ISSUED:          0  USEFUL:          0  USELESS:          0
cpu0_STLB AVERAGE MISS LATENCY: 15.8989 cycles
cpu0_L1D TOTAL     ACCESS:    7805320  HIT:    7233595  MISS:     571725
cpu0_L1D LOAD      ACCESS:    3954160  HIT:    3459010  MISS:     495150
cpu0_L1D RFO       ACCESS:    3749179  HIT:    3673721  MISS:      75458
cpu0_L1D PREFETCH  ACCESS:          0  HIT:          0  MISS:          0
cpu0_L1D WRITEBACK ACCESS:          0  HIT:          0  MISS:          0
cpu0_L1D TRANSLATION ACCESS:     101981  HIT:     100864  MISS:       1117
cpu0_L1D PREFETCH  REQUESTED:          0  ISSUED:          0  USEFUL:          0  USELESS:          0
cpu0_L1D AVERAGE MISS LATENCY: 157.915 cycles
cpu0_L2C TOTAL     ACCESS:     815690  HIT:     309277  MISS:     506413
cpu0_L2C LOAD      ACCESS:     495769  HIT:      61417  MISS:     434352
cpu0_L2C RFO       ACCESS:      75458  HIT:       4170  MISS:      71288
cpu0_L2C PREFETCH  ACCESS:          0  HIT:          0  MISS:          0
cpu0_L2C WRITEBACK ACCESS:     243346  HIT:     242829  MISS:        517
cpu0_L2C TRANSLATION ACCESS:       1117  HIT:        861  MISS:        256
cpu0_L2C PREFETCH  REQUESTED:          0  ISSUED:          0  USEFUL:          0  USELESS:          0
cpu0_L2C AVERAGE MISS LATENCY: 165.921 cycles
LLC TOTAL     ACCESS:     724198  HIT:     308066  MISS:     416132
LLC LOAD      ACCESS:     434352  HIT:      82153  MISS:     352199
LLC RFO       ACCESS:      71287  HIT:       7780  MISS:      63507
LLC PREFETCH  ACCESS:          0  HIT:          0  MISS:          0
LLC WRITEBACK ACCESS:     218303  HIT:     217951  MISS:        352
LLC TRANSLATION ACCESS:        256  HIT:        182  MISS:         74
LLC PREFETCH  REQUESTED:          0  ISSUED:          0  USEFUL:          0  USELESS:          0
LLC AVERAGE MISS LATENCY: 176.388 cycles

DRAM Statistics
 CHANNEL 0
 RQ ROW_BUFFER_HIT:      18689  ROW_BUFFER_MISS:     397053
 DBUS AVG_CONGESTED_CYCLE:    3.91679
 WQ ROW_BUFFER_HIT:      50764  ROW_BUFFER_MISS:     133121  FULL:          0


CPU 0 Branch Prediction Accuracy: 93.1336% MPKI: 16.5561 Average ROB Occupancy at Mispredict: 38.1479
Branch type MPKI
BRANCH_DIRECT_JUMP: 0.00016
BRANCH_INDIRECT: 0.11468
BRANCH_CONDITIONAL: 15.8254
BRANCH_DIRECT_CALL: 0.0002
BRANCH_INDIRECT_CALL: 0.12176
BRANCH_RETURN: 0.49384

