
*** ChampSim Multicore Out-of-Order Simulator ***

Warmup Instructions: 25000000
Simulation Instructions: 25000000
Number of CPUs: 1
Off-chip DRAM Size: 4 GiB Channels: 1 Width: 64-bit Data Rate: 3200 MT/s

VirtualMemory physical capacity: 8588881920 num_ppages: 2096895
VirtualMemory page size: 4096 log2_page_size: 12

CPU 0 runs /home/priyansh/Downloads/CS683/Tracefiles/Project/437.leslie3d-265B.champsimtrace.xz
CPU 0 Bimodal branch predictor
Basic BTB sets: 1024 ways: 8 indirect buffer size: 4096 RAS size: 64
Heartbeat CPU 0 instructions: 10000003 cycles: 3789767 heartbeat IPC: 2.63869 cumulative IPC: 2.63869 (Simulation time: 0 hr 0 min 23 sec) 
Heartbeat CPU 0 instructions: 20000000 cycles: 7576969 heartbeat IPC: 2.64047 cumulative IPC: 2.63958 (Simulation time: 0 hr 0 min 46 sec) 

Warmup complete CPU 0 instructions: 25000005 cycles: 9472429 (Simulation time: 0 hr 0 min 57 sec) 

Heartbeat CPU 0 instructions: 30000003 cycles: 13750939 heartbeat IPC: 1.6197 cumulative IPC: 1.16863 (Simulation time: 0 hr 1 min 15 sec) 
Heartbeat CPU 0 instructions: 40000002 cycles: 22285111 heartbeat IPC: 1.17176 cumulative IPC: 1.17071 (Simulation time: 0 hr 1 min 52 sec) 
Heartbeat CPU 0 instructions: 50000003 cycles: 30823953 heartbeat IPC: 1.17112 cumulative IPC: 1.17088 (Simulation time: 0 hr 2 min 29 sec) 
Finished CPU 0 instructions: 25000002 cycles: 21351525 cumulative IPC: 1.17088 (Simulation time: 0 hr 2 min 29 sec) 

ChampSim completed all CPUs

Region of Interest Statistics

CPU 0 cumulative IPC: 1.17088 instructions: 25000002 cycles: 21351525
cpu0_DTLB TOTAL     ACCESS:    6407779  HIT:    6401918  MISS:       5861
cpu0_DTLB LOAD      ACCESS:    5808904  HIT:    5804354  MISS:       4550
cpu0_DTLB RFO       ACCESS:     598875  HIT:     597564  MISS:       1311
cpu0_DTLB PREFETCH  ACCESS:          0  HIT:          0  MISS:          0
cpu0_DTLB WRITEBACK ACCESS:          0  HIT:          0  MISS:          0
cpu0_DTLB TRANSLATION ACCESS:          0  HIT:          0  MISS:          0
cpu0_DTLB PREFETCH  REQUESTED:          0  ISSUED:          0  USEFUL:          0  USELESS:          0
cpu0_DTLB AVERAGE MISS LATENCY: 55.6089 cycles
cpu0_ITLB TOTAL     ACCESS:     258515  HIT:     258515  MISS:          0
cpu0_ITLB LOAD      ACCESS:     258515  HIT:     258515  MISS:          0
cpu0_ITLB RFO       ACCESS:          0  HIT:          0  MISS:          0
cpu0_ITLB PREFETCH  ACCESS:          0  HIT:          0  MISS:          0
cpu0_ITLB WRITEBACK ACCESS:          0  HIT:          0  MISS:          0
cpu0_ITLB TRANSLATION ACCESS:          0  HIT:          0  MISS:          0
cpu0_ITLB PREFETCH  REQUESTED:          0  ISSUED:          0  USEFUL:          0  USELESS:          0
cpu0_ITLB AVERAGE MISS LATENCY: -nan cycles
cpu0_L1I TOTAL     ACCESS:      88686  HIT:      88686  MISS:          0
cpu0_L1I LOAD      ACCESS:      88686  HIT:      88686  MISS:          0
cpu0_L1I RFO       ACCESS:          0  HIT:          0  MISS:          0
cpu0_L1I PREFETCH  ACCESS:          0  HIT:          0  MISS:          0
cpu0_L1I WRITEBACK ACCESS:          0  HIT:          0  MISS:          0
cpu0_L1I TRANSLATION ACCESS:          0  HIT:          0  MISS:          0
cpu0_L1I PREFETCH  REQUESTED:          0  ISSUED:          0  USEFUL:          0  USELESS:          0
cpu0_L1I AVERAGE MISS LATENCY: -nan cycles
cpu0_STLB TOTAL     ACCESS:       5861  HIT:       4454  MISS:       1407
cpu0_STLB LOAD      ACCESS:       4550  HIT:       3508  MISS:       1042
cpu0_STLB RFO       ACCESS:       1311  HIT:        946  MISS:        365
cpu0_STLB PREFETCH  ACCESS:          0  HIT:          0  MISS:          0
cpu0_STLB WRITEBACK ACCESS:          0  HIT:          0  MISS:          0
cpu0_STLB TRANSLATION ACCESS:          0  HIT:          0  MISS:          0
cpu0_STLB PREFETCH  REQUESTED:          0  ISSUED:          0  USEFUL:          0  USELESS:          0
cpu0_STLB AVERAGE MISS LATENCY: 194.116 cycles
cpu0_L1D TOTAL     ACCESS:    6884596  HIT:    6667716  MISS:     216880
cpu0_L1D LOAD      ACCESS:    6010813  HIT:    5838627  MISS:     172186
cpu0_L1D RFO       ACCESS:     872411  HIT:     828180  MISS:      44231
cpu0_L1D PREFETCH  ACCESS:          0  HIT:          0  MISS:          0
cpu0_L1D WRITEBACK ACCESS:          0  HIT:          0  MISS:          0
cpu0_L1D TRANSLATION ACCESS:       1372  HIT:        909  MISS:        463
cpu0_L1D PREFETCH  REQUESTED:          0  ISSUED:          0  USEFUL:          0  USELESS:          0
cpu0_L1D AVERAGE MISS LATENCY: 185.033 cycles
cpu0_L2C TOTAL     ACCESS:     275776  HIT:     135134  MISS:     140642
cpu0_L2C LOAD      ACCESS:     172184  HIT:      54084  MISS:     118100
cpu0_L2C RFO       ACCESS:      44231  HIT:      21694  MISS:      22537
cpu0_L2C PREFETCH  ACCESS:          0  HIT:          0  MISS:          0
cpu0_L2C WRITEBACK ACCESS:      58898  HIT:      58894  MISS:          4
cpu0_L2C TRANSLATION ACCESS:        463  HIT:        462  MISS:          1
cpu0_L2C PREFETCH  REQUESTED:          0  ISSUED:          0  USEFUL:          0  USELESS:          0
cpu0_L2C AVERAGE MISS LATENCY: 268.356 cycles
LLC TOTAL     ACCESS:     162964  HIT:      22385  MISS:     140579
LLC LOAD      ACCESS:     118100  HIT:         62  MISS:     118038
LLC RFO       ACCESS:      22537  HIT:          7  MISS:      22530
LLC PREFETCH  ACCESS:          0  HIT:          0  MISS:          0
LLC WRITEBACK ACCESS:      22326  HIT:      22316  MISS:         10
LLC TRANSLATION ACCESS:          1  HIT:          0  MISS:          1
LLC PREFETCH  REQUESTED:          0  ISSUED:          0  USEFUL:          0  USELESS:          0
LLC AVERAGE MISS LATENCY: 247.468 cycles

DRAM Statistics
 CHANNEL 0
 RQ ROW_BUFFER_HIT:      16216  ROW_BUFFER_MISS:     124353
 DBUS AVG_CONGESTED_CYCLE:    3.97056
 WQ ROW_BUFFER_HIT:       4658  ROW_BUFFER_MISS:      17923  FULL:          0


CPU 0 Branch Prediction Accuracy: 98.1888% MPKI: 0.48164 Average ROB Occupancy at Mispredict: 311.935
Branch type MPKI
BRANCH_DIRECT_JUMP: 0
BRANCH_INDIRECT: 0
BRANCH_CONDITIONAL: 0.48164
BRANCH_DIRECT_CALL: 0
BRANCH_INDIRECT_CALL: 0
BRANCH_RETURN: 0

