
*** ChampSim Multicore Out-of-Order Simulator ***

Warmup Instructions: 25000000
Simulation Instructions: 25000000
Number of CPUs: 1
Off-chip DRAM Size: 4 GiB Channels: 1 Width: 64-bit Data Rate: 3200 MT/s

VirtualMemory physical capacity: 8588881920 num_ppages: 2096895
VirtualMemory page size: 4096 log2_page_size: 12

CPU 0 runs /home/priyansh/Downloads/CS683/Tracefiles/Project/450.soplex-247B.champsimtrace.xz
CPU 0 Bimodal branch predictor
Basic BTB sets: 1024 ways: 8 indirect buffer size: 4096 RAS size: 64
Heartbeat CPU 0 instructions: 10000000 cycles: 3571171 heartbeat IPC: 2.8002 cumulative IPC: 2.8002 (Simulation time: 0 hr 0 min 23 sec) 
Heartbeat CPU 0 instructions: 20000000 cycles: 6833293 heartbeat IPC: 3.06549 cumulative IPC: 2.92685 (Simulation time: 0 hr 0 min 42 sec) 

Warmup complete CPU 0 instructions: 25000001 cycles: 8312963 (Simulation time: 0 hr 0 min 51 sec) 

Heartbeat CPU 0 instructions: 30000004 cycles: 27884798 heartbeat IPC: 0.475026 cumulative IPC: 0.255469 (Simulation time: 0 hr 1 min 24 sec) 
Heartbeat CPU 0 instructions: 40000002 cycles: 61881716 heartbeat IPC: 0.294144 cumulative IPC: 0.280014 (Simulation time: 0 hr 2 min 12 sec) 
Heartbeat CPU 0 instructions: 50000000 cycles: 95603612 heartbeat IPC: 0.296543 cumulative IPC: 0.2864 (Simulation time: 0 hr 2 min 59 sec) 
Finished CPU 0 instructions: 25000004 cycles: 87290651 cumulative IPC: 0.2864 (Simulation time: 0 hr 2 min 59 sec) 

ChampSim completed all CPUs

Region of Interest Statistics

CPU 0 cumulative IPC: 0.2864 instructions: 25000004 cycles: 87290651
cpu0_DTLB TOTAL     ACCESS:    5537599  HIT:    5395950  MISS:     141649
cpu0_DTLB LOAD      ACCESS:    4555094  HIT:    4436492  MISS:     118602
cpu0_DTLB RFO       ACCESS:     982505  HIT:     959458  MISS:      23047
cpu0_DTLB PREFETCH  ACCESS:          0  HIT:          0  MISS:          0
cpu0_DTLB WRITEBACK ACCESS:          0  HIT:          0  MISS:          0
cpu0_DTLB TRANSLATION ACCESS:          0  HIT:          0  MISS:          0
cpu0_DTLB PREFETCH  REQUESTED:          0  ISSUED:          0  USEFUL:          0  USELESS:          0
cpu0_DTLB AVERAGE MISS LATENCY: 14.5971 cycles
cpu0_ITLB TOTAL     ACCESS:    1921365  HIT:    1921365  MISS:          0
cpu0_ITLB LOAD      ACCESS:    1921365  HIT:    1921365  MISS:          0
cpu0_ITLB RFO       ACCESS:          0  HIT:          0  MISS:          0
cpu0_ITLB PREFETCH  ACCESS:          0  HIT:          0  MISS:          0
cpu0_ITLB WRITEBACK ACCESS:          0  HIT:          0  MISS:          0
cpu0_ITLB TRANSLATION ACCESS:          0  HIT:          0  MISS:          0
cpu0_ITLB PREFETCH  REQUESTED:          0  ISSUED:          0  USEFUL:          0  USELESS:          0
cpu0_ITLB AVERAGE MISS LATENCY: -nan cycles
cpu0_L1I TOTAL     ACCESS:      98095  HIT:      98007  MISS:         88
cpu0_L1I LOAD      ACCESS:      98095  HIT:      98007  MISS:         88
cpu0_L1I RFO       ACCESS:          0  HIT:          0  MISS:          0
cpu0_L1I PREFETCH  ACCESS:          0  HIT:          0  MISS:          0
cpu0_L1I WRITEBACK ACCESS:          0  HIT:          0  MISS:          0
cpu0_L1I TRANSLATION ACCESS:          0  HIT:          0  MISS:          0
cpu0_L1I PREFETCH  REQUESTED:          0  ISSUED:          0  USEFUL:          0  USELESS:          0
cpu0_L1I AVERAGE MISS LATENCY: 356.841 cycles
cpu0_STLB TOTAL     ACCESS:     141649  HIT:     119847  MISS:      21802
cpu0_STLB LOAD      ACCESS:     118602  HIT:      97990  MISS:      20612
cpu0_STLB RFO       ACCESS:      23047  HIT:      21857  MISS:       1190
cpu0_STLB PREFETCH  ACCESS:          0  HIT:          0  MISS:          0
cpu0_STLB WRITEBACK ACCESS:          0  HIT:          0  MISS:          0
cpu0_STLB TRANSLATION ACCESS:          0  HIT:          0  MISS:          0
cpu0_STLB PREFETCH  REQUESTED:          0  ISSUED:          0  USEFUL:          0  USELESS:          0
cpu0_STLB AVERAGE MISS LATENCY: 35.0984 cycles
cpu0_L1D TOTAL     ACCESS:    4449472  HIT:    3145463  MISS:    1304009
cpu0_L1D LOAD      ACCESS:    3228528  HIT:    2082442  MISS:    1146086
cpu0_L1D RFO       ACCESS:    1199876  HIT:    1043081  MISS:     156795
cpu0_L1D PREFETCH  ACCESS:          0  HIT:          0  MISS:          0
cpu0_L1D WRITEBACK ACCESS:          0  HIT:          0  MISS:          0
cpu0_L1D TRANSLATION ACCESS:      21068  HIT:      19940  MISS:       1128
cpu0_L1D PREFETCH  REQUESTED:          0  ISSUED:          0  USEFUL:          0  USELESS:          0
cpu0_L1D AVERAGE MISS LATENCY: 300.712 cycles
cpu0_L2C TOTAL     ACCESS:    1883337  HIT:     850658  MISS:    1032679
cpu0_L2C LOAD      ACCESS:    1146078  HIT:     250237  MISS:     895841
cpu0_L2C RFO       ACCESS:     156781  HIT:      20151  MISS:     136630
cpu0_L2C PREFETCH  ACCESS:          0  HIT:          0  MISS:          0
cpu0_L2C WRITEBACK ACCESS:     579350  HIT:     579332  MISS:         18
cpu0_L2C TRANSLATION ACCESS:       1128  HIT:        938  MISS:        190
cpu0_L2C PREFETCH  REQUESTED:          0  ISSUED:          0  USEFUL:          0  USELESS:          0
cpu0_L2C AVERAGE MISS LATENCY: 365.667 cycles
LLC TOTAL     ACCESS:    1471383  HIT:     636673  MISS:     834710
LLC LOAD      ACCESS:     895837  HIT:     157457  MISS:     738380
LLC RFO       ACCESS:     136630  HIT:      40494  MISS:      96136
LLC PREFETCH  ACCESS:          0  HIT:          0  MISS:          0
LLC WRITEBACK ACCESS:     438726  HIT:     438649  MISS:         77
LLC TRANSLATION ACCESS:        190  HIT:         73  MISS:        117
LLC PREFETCH  REQUESTED:          0  ISSUED:          0  USEFUL:          0  USELESS:          0
LLC AVERAGE MISS LATENCY: 426.411 cycles

DRAM Statistics
 CHANNEL 0
 RQ ROW_BUFFER_HIT:     111561  ROW_BUFFER_MISS:     722594
 DBUS AVG_CONGESTED_CYCLE:    3.97105
 WQ ROW_BUFFER_HIT:      14164  ROW_BUFFER_MISS:     326663  FULL:          0


CPU 0 Branch Prediction Accuracy: 92.8526% MPKI: 12.9775 Average ROB Occupancy at Mispredict: 50.3287
Branch type MPKI
BRANCH_DIRECT_JUMP: 0.00036
BRANCH_INDIRECT: 0.0002
BRANCH_CONDITIONAL: 12.9755
BRANCH_DIRECT_CALL: 0.00012
BRANCH_INDIRECT_CALL: 0.00064
BRANCH_RETURN: 0.00072

