
*** ChampSim Multicore Out-of-Order Simulator ***

Warmup Instructions: 25000000
Simulation Instructions: 25000000
Number of CPUs: 1
Off-chip DRAM Size: 4 GiB Channels: 1 Width: 64-bit Data Rate: 3200 MT/s

VirtualMemory physical capacity: 8588881920 num_ppages: 2096895
VirtualMemory page size: 4096 log2_page_size: 12

CPU 0 runs /home/priyansh/Downloads/CS683/Tracefiles/Project/459.GemsFDTD-1169B.champsimtrace.xz
CPU 0 Bimodal branch predictor
Basic BTB sets: 1024 ways: 8 indirect buffer size: 4096 RAS size: 64
Heartbeat CPU 0 instructions: 10000003 cycles: 2500068 heartbeat IPC: 3.99989 cumulative IPC: 3.99989 (Simulation time: 0 hr 0 min 12 sec) 
Heartbeat CPU 0 instructions: 20000001 cycles: 6764032 heartbeat IPC: 2.34524 cumulative IPC: 2.95682 (Simulation time: 0 hr 0 min 43 sec) 

Warmup complete CPU 0 instructions: 25000001 cycles: 9352812 (Simulation time: 0 hr 1 min 3 sec) 

Heartbeat CPU 0 instructions: 30000002 cycles: 15851739 heartbeat IPC: 1.10039 cumulative IPC: 0.769358 (Simulation time: 0 hr 1 min 31 sec) 
Heartbeat CPU 0 instructions: 40000001 cycles: 27754978 heartbeat IPC: 0.840107 cumulative IPC: 0.815121 (Simulation time: 0 hr 2 min 24 sec) 
Heartbeat CPU 0 instructions: 50000003 cycles: 36288323 heartbeat IPC: 1.17187 cumulative IPC: 0.928143 (Simulation time: 0 hr 3 min 9 sec) 
Finished CPU 0 instructions: 25000002 cycles: 26935511 cumulative IPC: 0.928143 (Simulation time: 0 hr 3 min 9 sec) 

ChampSim completed all CPUs

Region of Interest Statistics

CPU 0 cumulative IPC: 0.928143 instructions: 25000002 cycles: 26935511
cpu0_DTLB TOTAL     ACCESS:    9507688  HIT:    9122930  MISS:     384758
cpu0_DTLB LOAD      ACCESS:    8749837  HIT:    8365300  MISS:     384537
cpu0_DTLB RFO       ACCESS:     757851  HIT:     757630  MISS:        221
cpu0_DTLB PREFETCH  ACCESS:          0  HIT:          0  MISS:          0
cpu0_DTLB WRITEBACK ACCESS:          0  HIT:          0  MISS:          0
cpu0_DTLB TRANSLATION ACCESS:          0  HIT:          0  MISS:          0
cpu0_DTLB PREFETCH  REQUESTED:          0  ISSUED:          0  USEFUL:          0  USELESS:          0
cpu0_DTLB AVERAGE MISS LATENCY: 28.4634 cycles
cpu0_ITLB TOTAL     ACCESS:     493672  HIT:     493671  MISS:          1
cpu0_ITLB LOAD      ACCESS:     493672  HIT:     493671  MISS:          1
cpu0_ITLB RFO       ACCESS:          0  HIT:          0  MISS:          0
cpu0_ITLB PREFETCH  ACCESS:          0  HIT:          0  MISS:          0
cpu0_ITLB WRITEBACK ACCESS:          0  HIT:          0  MISS:          0
cpu0_ITLB TRANSLATION ACCESS:          0  HIT:          0  MISS:          0
cpu0_ITLB PREFETCH  REQUESTED:          0  ISSUED:          0  USEFUL:          0  USELESS:          0
cpu0_ITLB AVERAGE MISS LATENCY: 217 cycles
cpu0_L1I TOTAL     ACCESS:    2383955  HIT:    2383855  MISS:        100
cpu0_L1I LOAD      ACCESS:    2383955  HIT:    2383855  MISS:        100
cpu0_L1I RFO       ACCESS:          0  HIT:          0  MISS:          0
cpu0_L1I PREFETCH  ACCESS:          0  HIT:          0  MISS:          0
cpu0_L1I WRITEBACK ACCESS:          0  HIT:          0  MISS:          0
cpu0_L1I TRANSLATION ACCESS:          0  HIT:          0  MISS:          0
cpu0_L1I PREFETCH  REQUESTED:          0  ISSUED:          0  USEFUL:          0  USELESS:          0
cpu0_L1I AVERAGE MISS LATENCY: 337.39 cycles
cpu0_STLB TOTAL     ACCESS:     384759  HIT:     284716  MISS:     100043
cpu0_STLB LOAD      ACCESS:     384538  HIT:     284495  MISS:     100043
cpu0_STLB RFO       ACCESS:        221  HIT:        221  MISS:          0
cpu0_STLB PREFETCH  ACCESS:          0  HIT:          0  MISS:          0
cpu0_STLB WRITEBACK ACCESS:          0  HIT:          0  MISS:          0
cpu0_STLB TRANSLATION ACCESS:          0  HIT:          0  MISS:          0
cpu0_STLB PREFETCH  REQUESTED:          0  ISSUED:          0  USEFUL:          0  USELESS:          0
cpu0_STLB AVERAGE MISS LATENCY: 74.8325 cycles
cpu0_L1D TOTAL     ACCESS:   11896033  HIT:   10830005  MISS:    1066028
cpu0_L1D LOAD      ACCESS:   10982336  HIT:    9921981  MISS:    1060355
cpu0_L1D RFO       ACCESS:     813869  HIT:     813866  MISS:          3
cpu0_L1D PREFETCH  ACCESS:          0  HIT:          0  MISS:          0
cpu0_L1D WRITEBACK ACCESS:          0  HIT:          0  MISS:          0
cpu0_L1D TRANSLATION ACCESS:      99828  HIT:      94158  MISS:       5670
cpu0_L1D PREFETCH  REQUESTED:          0  ISSUED:          0  USEFUL:          0  USELESS:          0
cpu0_L1D AVERAGE MISS LATENCY: 60.3359 cycles
cpu0_L2C TOTAL     ACCESS:    1313295  HIT:    1097958  MISS:     215337
cpu0_L2C LOAD      ACCESS:    1060455  HIT:     845188  MISS:     215267
cpu0_L2C RFO       ACCESS:          3  HIT:          0  MISS:          3
cpu0_L2C PREFETCH  ACCESS:          0  HIT:          0  MISS:          0
cpu0_L2C WRITEBACK ACCESS:     247167  HIT:     247167  MISS:          0
cpu0_L2C TRANSLATION ACCESS:       5670  HIT:       5603  MISS:         67
cpu0_L2C PREFETCH  REQUESTED:          0  ISSUED:          0  USEFUL:          0  USELESS:          0
cpu0_L2C AVERAGE MISS LATENCY: 244.104 cycles
LLC TOTAL     ACCESS:     216329  HIT:       5795  MISS:     210534
LLC LOAD      ACCESS:     215267  HIT:       5111  MISS:     210156
LLC RFO       ACCESS:          3  HIT:          0  MISS:          3
LLC PREFETCH  ACCESS:          0  HIT:          0  MISS:          0
LLC WRITEBACK ACCESS:        992  HIT:        660  MISS:        332
LLC TRANSLATION ACCESS:         67  HIT:         24  MISS:         43
LLC PREFETCH  REQUESTED:          0  ISSUED:          0  USEFUL:          0  USELESS:          0
LLC AVERAGE MISS LATENCY: 228.194 cycles

DRAM Statistics
 CHANNEL 0
 RQ ROW_BUFFER_HIT:         24  ROW_BUFFER_MISS:     210177
 DBUS AVG_CONGESTED_CYCLE:    3.87298
 WQ ROW_BUFFER_HIT:        126  ROW_BUFFER_MISS:        198  FULL:          0


CPU 0 Branch Prediction Accuracy: 98.9051% MPKI: 0.03008 Average ROB Occupancy at Mispredict: 344.572
Branch type MPKI
BRANCH_DIRECT_JUMP: 4e-05
BRANCH_INDIRECT: 0
BRANCH_CONDITIONAL: 0.03004
BRANCH_DIRECT_CALL: 0
BRANCH_INDIRECT_CALL: 0
BRANCH_RETURN: 0

