
*** ChampSim Multicore Out-of-Order Simulator ***

Warmup Instructions: 25000000
Simulation Instructions: 25000000
Number of CPUs: 1
Off-chip DRAM Size: 4 GiB Channels: 1 Width: 64-bit Data Rate: 3200 MT/s

VirtualMemory physical capacity: 8588881920 num_ppages: 2096895
VirtualMemory page size: 4096 log2_page_size: 12

CPU 0 runs /home/priyansh/Downloads/CS683/Tracefiles/Project/459.GemsFDTD-1418B.champsimtrace.xz
CPU 0 Bimodal branch predictor
Basic BTB sets: 1024 ways: 8 indirect buffer size: 4096 RAS size: 64
Heartbeat CPU 0 instructions: 10000000 cycles: 5683773 heartbeat IPC: 1.75939 cumulative IPC: 1.75939 (Simulation time: 0 hr 0 min 48 sec) 
Heartbeat CPU 0 instructions: 20000001 cycles: 11367433 heartbeat IPC: 1.75943 cumulative IPC: 1.75941 (Simulation time: 0 hr 1 min 37 sec) 

Warmup complete CPU 0 instructions: 25000004 cycles: 14209260 (Simulation time: 0 hr 2 min 1 sec) 

Heartbeat CPU 0 instructions: 30000003 cycles: 20835471 heartbeat IPC: 1.05619 cumulative IPC: 0.754579 (Simulation time: 0 hr 2 min 32 sec) 
Heartbeat CPU 0 instructions: 40000001 cycles: 34505299 heartbeat IPC: 0.731538 cumulative IPC: 0.73906 (Simulation time: 0 hr 3 min 35 sec) 
Heartbeat CPU 0 instructions: 50000004 cycles: 48599426 heartbeat IPC: 0.709516 cumulative IPC: 0.726952 (Simulation time: 0 hr 4 min 41 sec) 
Finished CPU 0 instructions: 25000000 cycles: 34390166 cumulative IPC: 0.726952 (Simulation time: 0 hr 4 min 41 sec) 

ChampSim completed all CPUs

Region of Interest Statistics

CPU 0 cumulative IPC: 0.726952 instructions: 25000000 cycles: 34390166
cpu0_DTLB TOTAL     ACCESS:   11872109  HIT:   11735686  MISS:     136423
cpu0_DTLB LOAD      ACCESS:   10897624  HIT:   10822464  MISS:      75160
cpu0_DTLB RFO       ACCESS:     974485  HIT:     913222  MISS:      61263
cpu0_DTLB PREFETCH  ACCESS:          0  HIT:          0  MISS:          0
cpu0_DTLB WRITEBACK ACCESS:          0  HIT:          0  MISS:          0
cpu0_DTLB TRANSLATION ACCESS:          0  HIT:          0  MISS:          0
cpu0_DTLB PREFETCH  REQUESTED:          0  ISSUED:          0  USEFUL:          0  USELESS:          0
cpu0_DTLB AVERAGE MISS LATENCY: 12.8543 cycles
cpu0_ITLB TOTAL     ACCESS:     285659  HIT:     285657  MISS:          2
cpu0_ITLB LOAD      ACCESS:     285659  HIT:     285657  MISS:          2
cpu0_ITLB RFO       ACCESS:          0  HIT:          0  MISS:          0
cpu0_ITLB PREFETCH  ACCESS:          0  HIT:          0  MISS:          0
cpu0_ITLB WRITEBACK ACCESS:          0  HIT:          0  MISS:          0
cpu0_ITLB TRANSLATION ACCESS:          0  HIT:          0  MISS:          0
cpu0_ITLB PREFETCH  REQUESTED:          0  ISSUED:          0  USEFUL:          0  USELESS:          0
cpu0_ITLB AVERAGE MISS LATENCY: 238.5 cycles
cpu0_L1I TOTAL     ACCESS:    1793371  HIT:    1793315  MISS:         56
cpu0_L1I LOAD      ACCESS:    1793371  HIT:    1793315  MISS:         56
cpu0_L1I RFO       ACCESS:          0  HIT:          0  MISS:          0
cpu0_L1I PREFETCH  ACCESS:          0  HIT:          0  MISS:          0
cpu0_L1I WRITEBACK ACCESS:          0  HIT:          0  MISS:          0
cpu0_L1I TRANSLATION ACCESS:          0  HIT:          0  MISS:          0
cpu0_L1I PREFETCH  REQUESTED:          0  ISSUED:          0  USEFUL:          0  USELESS:          0
cpu0_L1I AVERAGE MISS LATENCY: 297.321 cycles
cpu0_STLB TOTAL     ACCESS:     136425  HIT:     133748  MISS:       2677
cpu0_STLB LOAD      ACCESS:      75162  HIT:      72485  MISS:       2677
cpu0_STLB RFO       ACCESS:      61263  HIT:      61263  MISS:          0
cpu0_STLB PREFETCH  ACCESS:          0  HIT:          0  MISS:          0
cpu0_STLB WRITEBACK ACCESS:          0  HIT:          0  MISS:          0
cpu0_STLB TRANSLATION ACCESS:          0  HIT:          0  MISS:          0
cpu0_STLB PREFETCH  REQUESTED:          0  ISSUED:          0  USEFUL:          0  USELESS:          0
cpu0_STLB AVERAGE MISS LATENCY: 196.317 cycles
cpu0_L1D TOTAL     ACCESS:   13707473  HIT:   13525265  MISS:     182208
cpu0_L1D LOAD      ACCESS:   12232359  HIT:   12051716  MISS:     180643
cpu0_L1D RFO       ACCESS:    1472556  HIT:    1472533  MISS:         23
cpu0_L1D PREFETCH  ACCESS:          0  HIT:          0  MISS:          0
cpu0_L1D WRITEBACK ACCESS:          0  HIT:          0  MISS:          0
cpu0_L1D TRANSLATION ACCESS:       2558  HIT:       1016  MISS:       1542
cpu0_L1D PREFETCH  REQUESTED:          0  ISSUED:          0  USEFUL:          0  USELESS:          0
cpu0_L1D AVERAGE MISS LATENCY: 298.381 cycles
cpu0_L2C TOTAL     ACCESS:     275801  HIT:     112431  MISS:     163370
cpu0_L2C LOAD      ACCESS:     180699  HIT:      17373  MISS:     163326
cpu0_L2C RFO       ACCESS:         23  HIT:         17  MISS:          6
cpu0_L2C PREFETCH  ACCESS:          0  HIT:          0  MISS:          0
cpu0_L2C WRITEBACK ACCESS:      93537  HIT:      93511  MISS:         26
cpu0_L2C TRANSLATION ACCESS:       1542  HIT:       1530  MISS:         12
cpu0_L2C PREFETCH  REQUESTED:          0  ISSUED:          0  USEFUL:          0  USELESS:          0
cpu0_L2C AVERAGE MISS LATENCY: 320.596 cycles
LLC TOTAL     ACCESS:     257141  HIT:      94339  MISS:     162802
LLC LOAD      ACCESS:     163326  HIT:        559  MISS:     162767
LLC RFO       ACCESS:          6  HIT:          1  MISS:          5
LLC PREFETCH  ACCESS:          0  HIT:          0  MISS:          0
LLC WRITEBACK ACCESS:      93797  HIT:      93776  MISS:         21
LLC TRANSLATION ACCESS:         12  HIT:          3  MISS:          9
LLC PREFETCH  REQUESTED:          0  ISSUED:          0  USEFUL:          0  USELESS:          0
LLC AVERAGE MISS LATENCY: 300.645 cycles

DRAM Statistics
 CHANNEL 0
 RQ ROW_BUFFER_HIT:         19  ROW_BUFFER_MISS:     162762
 DBUS AVG_CONGESTED_CYCLE:    3.99452
 WQ ROW_BUFFER_HIT:       9746  ROW_BUFFER_MISS:      86295  FULL:          0


CPU 0 Branch Prediction Accuracy: 99.0223% MPKI: 0.04896 Average ROB Occupancy at Mispredict: 347.445
Branch type MPKI
BRANCH_DIRECT_JUMP: 8e-05
BRANCH_INDIRECT: 0
BRANCH_CONDITIONAL: 0.04888
BRANCH_DIRECT_CALL: 0
BRANCH_INDIRECT_CALL: 0
BRANCH_RETURN: 0

