
*** ChampSim Multicore Out-of-Order Simulator ***

Warmup Instructions: 25000000
Simulation Instructions: 25000000
Number of CPUs: 1
Off-chip DRAM Size: 4 GiB Channels: 1 Width: 64-bit Data Rate: 3200 MT/s

VirtualMemory physical capacity: 8588881920 num_ppages: 2096895
VirtualMemory page size: 4096 log2_page_size: 12

CPU 0 runs /home/priyansh/Downloads/CS683/Tracefiles/Project/459.GemsFDTD-1320B.champsimtrace.xz
CPU 0 Bimodal branch predictor
Basic BTB sets: 1024 ways: 8 indirect buffer size: 4096 RAS size: 64
Heartbeat CPU 0 instructions: 10000001 cycles: 5180125 heartbeat IPC: 1.93046 cumulative IPC: 1.93046 (Simulation time: 0 hr 0 min 41 sec) 
Heartbeat CPU 0 instructions: 20000000 cycles: 10485944 heartbeat IPC: 1.88472 cumulative IPC: 1.90732 (Simulation time: 0 hr 1 min 24 sec) 

Warmup complete CPU 0 instructions: 25000004 cycles: 13157303 (Simulation time: 0 hr 1 min 48 sec) 

Heartbeat CPU 0 instructions: 30000003 cycles: 17067876 heartbeat IPC: 1.51931 cumulative IPC: 1.27858 (Simulation time: 0 hr 2 min 12 sec) 
Heartbeat CPU 0 instructions: 40000001 cycles: 24560202 heartbeat IPC: 1.3347 cumulative IPC: 1.31545 (Simulation time: 0 hr 2 min 56 sec) 
Heartbeat CPU 0 instructions: 50000000 cycles: 35771500 heartbeat IPC: 0.891957 cumulative IPC: 1.1055 (Simulation time: 0 hr 3 min 50 sec) 
Finished CPU 0 instructions: 25000001 cycles: 22614198 cumulative IPC: 1.1055 (Simulation time: 0 hr 3 min 50 sec) 

ChampSim completed all CPUs

Region of Interest Statistics

CPU 0 cumulative IPC: 1.1055 instructions: 25000001 cycles: 22614198
cpu0_DTLB TOTAL     ACCESS:    9991414  HIT:    9723755  MISS:     267659
cpu0_DTLB LOAD      ACCESS:    9155385  HIT:    8888444  MISS:     266941
cpu0_DTLB RFO       ACCESS:     836029  HIT:     835311  MISS:        718
cpu0_DTLB PREFETCH  ACCESS:          0  HIT:          0  MISS:          0
cpu0_DTLB WRITEBACK ACCESS:          0  HIT:          0  MISS:          0
cpu0_DTLB TRANSLATION ACCESS:          0  HIT:          0  MISS:          0
cpu0_DTLB PREFETCH  REQUESTED:          0  ISSUED:          0  USEFUL:          0  USELESS:          0
cpu0_DTLB AVERAGE MISS LATENCY: 23.6898 cycles
cpu0_ITLB TOTAL     ACCESS:     479631  HIT:     479629  MISS:          2
cpu0_ITLB LOAD      ACCESS:     479631  HIT:     479629  MISS:          2
cpu0_ITLB RFO       ACCESS:          0  HIT:          0  MISS:          0
cpu0_ITLB PREFETCH  ACCESS:          0  HIT:          0  MISS:          0
cpu0_ITLB WRITEBACK ACCESS:          0  HIT:          0  MISS:          0
cpu0_ITLB TRANSLATION ACCESS:          0  HIT:          0  MISS:          0
cpu0_ITLB PREFETCH  REQUESTED:          0  ISSUED:          0  USEFUL:          0  USELESS:          0
cpu0_ITLB AVERAGE MISS LATENCY: 358 cycles
cpu0_L1I TOTAL     ACCESS:    2410183  HIT:    2410108  MISS:         75
cpu0_L1I LOAD      ACCESS:    2410183  HIT:    2410108  MISS:         75
cpu0_L1I RFO       ACCESS:          0  HIT:          0  MISS:          0
cpu0_L1I PREFETCH  ACCESS:          0  HIT:          0  MISS:          0
cpu0_L1I WRITEBACK ACCESS:          0  HIT:          0  MISS:          0
cpu0_L1I TRANSLATION ACCESS:          0  HIT:          0  MISS:          0
cpu0_L1I PREFETCH  REQUESTED:          0  ISSUED:          0  USEFUL:          0  USELESS:          0
cpu0_L1I AVERAGE MISS LATENCY: 279.16 cycles
cpu0_STLB TOTAL     ACCESS:     267661  HIT:     248591  MISS:      19070
cpu0_STLB LOAD      ACCESS:     266943  HIT:     247873  MISS:      19070
cpu0_STLB RFO       ACCESS:        718  HIT:        718  MISS:          0
cpu0_STLB PREFETCH  ACCESS:          0  HIT:          0  MISS:          0
cpu0_STLB WRITEBACK ACCESS:          0  HIT:          0  MISS:          0
cpu0_STLB TRANSLATION ACCESS:          0  HIT:          0  MISS:          0
cpu0_STLB PREFETCH  REQUESTED:          0  ISSUED:          0  USEFUL:          0  USELESS:          0
cpu0_STLB AVERAGE MISS LATENCY: 206.172 cycles
cpu0_L1D TOTAL     ACCESS:   12238698  HIT:   11472088  MISS:     766610
cpu0_L1D LOAD      ACCESS:   11370792  HIT:   10605461  MISS:     765331
cpu0_L1D RFO       ACCESS:     848841  HIT:     848841  MISS:          0
cpu0_L1D PREFETCH  ACCESS:          0  HIT:          0  MISS:          0
cpu0_L1D WRITEBACK ACCESS:          0  HIT:          0  MISS:          0
cpu0_L1D TRANSLATION ACCESS:      19065  HIT:      17786  MISS:       1279
cpu0_L1D PREFETCH  REQUESTED:          0  ISSUED:          0  USEFUL:          0  USELESS:          0
cpu0_L1D AVERAGE MISS LATENCY: 57.5625 cycles
cpu0_L2C TOTAL     ACCESS:     838047  HIT:     691246  MISS:     146801
cpu0_L2C LOAD      ACCESS:     765406  HIT:     618707  MISS:     146699
cpu0_L2C RFO       ACCESS:          0  HIT:          0  MISS:          0
cpu0_L2C PREFETCH  ACCESS:          0  HIT:          0  MISS:          0
cpu0_L2C WRITEBACK ACCESS:      71362  HIT:      71357  MISS:          5
cpu0_L2C TRANSLATION ACCESS:       1279  HIT:       1182  MISS:         97
cpu0_L2C PREFETCH  REQUESTED:          0  ISSUED:          0  USEFUL:          0  USELESS:          0
cpu0_L2C AVERAGE MISS LATENCY: 243.169 cycles
LLC TOTAL     ACCESS:     148519  HIT:       5382  MISS:     143137
LLC LOAD      ACCESS:     146697  HIT:       3669  MISS:     143028
LLC RFO       ACCESS:          0  HIT:          0  MISS:          0
LLC PREFETCH  ACCESS:          0  HIT:          0  MISS:          0
LLC WRITEBACK ACCESS:       1725  HIT:       1649  MISS:         76
LLC TRANSLATION ACCESS:         97  HIT:         64  MISS:         33
LLC PREFETCH  REQUESTED:          0  ISSUED:          0  USEFUL:          0  USELESS:          0
LLC AVERAGE MISS LATENCY: 227.857 cycles

DRAM Statistics
 CHANNEL 0
 RQ ROW_BUFFER_HIT:         17  ROW_BUFFER_MISS:     143025
 DBUS AVG_CONGESTED_CYCLE:    3.83843
 WQ ROW_BUFFER_HIT:        482  ROW_BUFFER_MISS:       1070  FULL:          0


CPU 0 Branch Prediction Accuracy: 98.9017% MPKI: 0.02572 Average ROB Occupancy at Mispredict: 350.278
Branch type MPKI
BRANCH_DIRECT_JUMP: 8e-05
BRANCH_INDIRECT: 0
BRANCH_CONDITIONAL: 0.02564
BRANCH_DIRECT_CALL: 0
BRANCH_INDIRECT_CALL: 0
BRANCH_RETURN: 0

